* NGSPICE file created from top_i2s_asic.ext - technology: ihp-sg13cmos5l

.subckt top_i2s_asic VSS VDD i2s_bclk i2s_lrck i2s_sdata rst_n sd_clk sd_out
XFILLER_27_417 VDD VSS sg13cmos5l_fill_1
XFILLER_27_428 VDD VSS sg13cmos5l_fill_1
X_6914_ _6918_/B _6914_/A VDD VSS sg13cmos5l_inv_1
XFILLER_23_667 VDD VSS sg13cmos5l_fill_1
XFILLER_35_483 VDD VSS sg13cmos5l_decap_4
X_3988_ _3990_/B _6675_/B _4001_/B _3986_/X VDD VSS sg13cmos5l_a21oi_1
X_5727_ _5756_/A _5728_/A _5728_/B VDD VSS sg13cmos5l_nor2_1
X_6845_ _6845_/Y _6871_/A _6844_/B _6990_/A VDD VSS sg13cmos5l_a21oi_1
X_6776_ _6776_/Y _7007_/Q _6777_/B VDD VSS sg13cmos5l_nand2_1
X_4609_ _7079_/D _4635_/B _4607_/Y _4608_/Y VDD VSS sg13cmos5l_a21oi_1
X_5589_ _5589_/Y _5588_/A _5588_/B _6480_/A VDD VSS sg13cmos5l_a21oi_1
X_5658_ _5701_/A _5660_/A _5660_/B VDD VSS sg13cmos5l_nor2_1
X_7259_ _7260_/D _7266_/CLK _7259_/D _6584_/B1 VDD VSS sg13cmos5l_dfrbpq_1
XFILLER_26_494 VDD VSS sg13cmos5l_fill_1
XFILLER_24_409 VDD VSS sg13cmos5l_fill_1
XFILLER_36_269 VDD VSS sg13cmos5l_fill_1
X_3842_ _3846_/C _3847_/A _3874_/A _3843_/B VDD VSS sg13cmos5l_a21oi_1
X_3911_ _3912_/B _5787_/B _4154_/B _5124_/A VDD VSS sg13cmos5l_o21ai_1
X_4891_ _4924_/B _4891_/A _4924_/A _4891_/C VDD VSS sg13cmos5l_nand3_1
X_4960_ _4984_/A _7088_/Q _4948_/B _4946_/X VDD VSS sg13cmos5l_a21oi_1
X_6630_ _6631_/C _6647_/B _6629_/A VDD VSS sg13cmos5l_nor2b_1
X_6561_ _6563_/B _6562_/A _6562_/B VDD VSS sg13cmos5l_and2_1
XFILLER_8_170 VDD VSS sg13cmos5l_fill_2
X_3773_ _3868_/B _3834_/A _3834_/B VDD VSS sg13cmos5l_and2_1
X_5374_ _5374_/X _5374_/A _5374_/B _5374_/C VDD VSS sg13cmos5l_and3_1
X_5443_ _5443_/Y _7083_/Q _5444_/B VDD VSS sg13cmos5l_nand2_1
X_5512_ _5547_/B _5513_/A _5513_/B _5513_/C VDD VSS sg13cmos5l_a21o_1
X_6492_ _6492_/Y _6480_/C _6489_/X _6488_/Y VDD VSS sg13cmos5l_a21oi_1
X_4187_ _4189_/B _7063_/Q _4186_/C _4183_/Y VDD VSS sg13cmos5l_a21oi_1
X_4256_ _4257_/C _4256_/A _4256_/B VDD VSS sg13cmos5l_xnor2_1
X_4325_ _4328_/C _4325_/A _4325_/B _4325_/C VDD VSS sg13cmos5l_or3_1
Xfanout105 _5381_/B _3797_/Y VDD VSS sg13cmos5l_buf_1
Xfanout116 _5330_/C _3809_/X VDD VSS sg13cmos5l_buf_1
Xfanout127 _6469_/A _5294_/B VDD VSS sg13cmos5l_buf_1
Xfanout138 _6436_/A _6925_/B1 VDD VSS sg13cmos5l_buf_1
Xfanout149 _6985_/A fanout166/X VDD VSS sg13cmos5l_buf_1
X_7113_ _7113_/Q _7243_/CLK _7113_/D _7113_/RESET_B VDD VSS sg13cmos5l_dfrbpq_1
X_7044_ _7044_/Q clkload7/A _7044_/D _7044_/RESET_B VDD VSS sg13cmos5l_dfrbpq_1
XFILLER_35_280 VDD VSS sg13cmos5l_fill_1
XFILLER_10_136 VDD VSS sg13cmos5l_fill_2
XFILLER_23_486 VDD VSS sg13cmos5l_fill_2
X_6828_ _6828_/Y _6830_/B _6827_/X _5212_/A VDD VSS sg13cmos5l_o21ai_1
X_6759_ _7033_/D _6742_/Y _6760_/B _6758_/Y VDD VSS sg13cmos5l_a21oi_1
XFILLER_19_704 VDD VSS sg13cmos5l_fill_1
X_4041_ _4041_/Y _4077_/A _4077_/B VDD VSS sg13cmos5l_nand2_1
X_4110_ _4127_/A _4111_/B _4111_/A VDD VSS sg13cmos5l_nand2b_1
X_5090_ _5092_/B _5090_/A _5090_/B VDD VSS sg13cmos5l_xnor2_1
XFILLER_37_523 VDD VSS sg13cmos5l_decap_4
X_4943_ _4977_/B _4944_/A _4944_/C _4997_/A VDD VSS sg13cmos5l_a21oi_1
X_5992_ _5992_/Y _7168_/Q _5992_/B VDD VSS sg13cmos5l_nor2_1
XFILLER_32_294 VDD VSS sg13cmos5l_fill_1
X_3756_ _3836_/C _7120_/Q _3756_/B _3756_/C VDD VSS sg13cmos5l_nor3_1
X_3825_ _3825_/X _4611_/A _4611_/C VDD VSS sg13cmos5l_and2_1
X_4874_ _4875_/B _4758_/Y _4920_/A _4872_/X VDD VSS sg13cmos5l_a21oi_1
X_6613_ _6613_/Y _6614_/A _6614_/B VDD VSS sg13cmos5l_nand2_1
X_6544_ _6546_/A _6544_/A _6569_/A _6544_/C VDD VSS sg13cmos5l_nor3_1
X_3687_ _3782_/A _7159_/Q _7158_/Q VDD VSS sg13cmos5l_nand2_1
X_5357_ _5359_/B _5357_/A _5357_/B VDD VSS sg13cmos5l_xor2_1
X_5426_ _7109_/D _5450_/A _5424_/B _5425_/Y VDD VSS sg13cmos5l_a21oi_1
X_6475_ _6475_/Y _6476_/A _6476_/B VDD VSS sg13cmos5l_nor2_1
XFILLER_28_523 VDD VSS sg13cmos5l_fill_2
X_4239_ _6179_/A _4239_/A _6528_/A VDD VSS sg13cmos5l_nor2_1
X_4308_ _4449_/B _7033_/Q _4308_/B _4308_/C VDD VSS sg13cmos5l_and3_1
X_5288_ _5321_/A _5286_/Y _5288_/B VDD VSS sg13cmos5l_nand2b_1
X_7027_ _7027_/Q _7224_/CLK _7027_/D _7027_/RESET_B VDD VSS sg13cmos5l_dfrbpq_1
X_7188__205 _7188_/RESET_B VDD VSS sg13cmos5l_tiehi
XFILLER_7_416 VDD VSS sg13cmos5l_fill_2
XFILLER_0_57 VDD VSS sg13cmos5l_fill_1
XFILLER_19_512 VDD VSS sg13cmos5l_decap_4
XFILLER_34_548 VDD VSS sg13cmos5l_fill_2
XFILLER_15_762 VDD VSS sg13cmos5l_fill_2
XFILLER_30_710 VDD VSS sg13cmos5l_fill_1
XFILLER_30_754 VDD VSS sg13cmos5l_fill_2
XFILLER_30_787 VDD VSS sg13cmos5l_fill_1
X_4590_ _4592_/B _7050_/Q _4577_/B _4575_/Y VDD VSS sg13cmos5l_a21oi_1
X_5211_ _5212_/B _5211_/A _5211_/B VDD VSS sg13cmos5l_or2_1
X_6191_ _6993_/D _6191_/A _6190_/Y VDD VSS sg13cmos5l_nor2b_1
X_6260_ _6260_/Y _6270_/B VDD VSS sg13cmos5l_inv_1
XFILLER_37_320 VDD VSS sg13cmos5l_fill_1
X_4024_ _4026_/B _4024_/A _4024_/B VDD VSS sg13cmos5l_xnor2_1
X_5073_ _7091_/D _5073_/A _5073_/B VDD VSS sg13cmos5l_nor2_1
X_5142_ _5176_/C _5142_/A _5142_/B _5142_/C VDD VSS sg13cmos5l_and3_1
X_7219__448 _7219_/RESET_B VDD VSS sg13cmos5l_tiehi
X_4926_ _4973_/A _5671_/A _4926_/B VDD VSS sg13cmos5l_nor2_1
X_5975_ _7164_/D _7164_/Q _5975_/A2 _5974_/Y VDD VSS sg13cmos5l_a21o_1
XFILLER_20_231 VDD VSS sg13cmos5l_fill_1
XFILLER_4_419 VDD VSS sg13cmos5l_fill_1
X_3739_ _3847_/A _7123_/Q _3898_/B VDD VSS sg13cmos5l_nand2_1
X_3808_ _3808_/Y _3808_/A _5267_/A VDD VSS sg13cmos5l_nand2_1
X_4788_ _4790_/B _7056_/Q _4745_/B _4743_/Y VDD VSS sg13cmos5l_a21o_1
X_4857_ _4858_/C _4812_/A _4812_/B _4810_/Y VDD VSS sg13cmos5l_o21ai_1
X_6527_ _6528_/B _6547_/A _6527_/B VDD VSS sg13cmos5l_nand2b_1
X_5409_ _5410_/B _5536_/A _5435_/A VDD VSS sg13cmos5l_nand2_1
X_6458_ _6458_/Y _6452_/Y _6457_/X _6436_/A VDD VSS sg13cmos5l_o21ai_1
X_6389_ _6409_/A _7011_/Q _6415_/B VDD VSS sg13cmos5l_nand2_1
XFILLER_16_526 VDD VSS sg13cmos5l_fill_1
XFILLER_16_548 VDD VSS sg13cmos5l_decap_8
XFILLER_22_507 VDD VSS sg13cmos5l_fill_1
XFILLER_34_356 VDD VSS sg13cmos5l_fill_1
X_5760_ _5760_/X _5760_/A _5760_/B VDD VSS sg13cmos5l_or2_1
X_4573_ _4587_/A _7077_/Q _4574_/B VDD VSS sg13cmos5l_nor2_1
X_4642_ _6593_/A _5330_/A _5330_/B _5381_/B VDD VSS sg13cmos5l_o21ai_1
X_4711_ _4744_/A _4696_/A _4696_/B _4694_/Y VDD VSS sg13cmos5l_o21ai_1
X_5691_ _5692_/C _5690_/B _5690_/C _7091_/Q VDD VSS sg13cmos5l_a21oi_1
X_6174_ _6991_/D _6174_/A _6172_/Y VDD VSS sg13cmos5l_nor2b_1
X_6243_ _6252_/B _6251_/A _6251_/B VDD VSS sg13cmos5l_nand2_1
X_7292_ _7292_/Q _7308_/CLK _7292_/D _7292_/RESET_B VDD VSS sg13cmos5l_dfrbpq_1
Xfanout7 _6907_/B _6860_/B VDD VSS sg13cmos5l_buf_1
X_7178__215 _7178_/RESET_B VDD VSS sg13cmos5l_tiehi
X_6312_ _6313_/B _7005_/Q _6707_/A VDD VSS sg13cmos5l_xnor2_1
XFILLER_37_150 VDD VSS sg13cmos5l_fill_2
X_4007_ _4617_/A _4239_/A _4681_/A VDD VSS sg13cmos5l_and2_1
X_5056_ _5059_/C _5056_/A _5056_/B _5098_/B VDD VSS sg13cmos5l_nand3_1
X_5125_ _5150_/B _5127_/A _5127_/B _5127_/C VDD VSS sg13cmos5l_a21oi_1
X_4909_ _4909_/Y _4910_/B _4910_/A VDD VSS sg13cmos5l_nor2b_1
X_5889_ _7137_/D _5901_/A _5889_/B VDD VSS sg13cmos5l_nor2_1
X_5958_ _5958_/Y _5956_/Y _5957_/Y _5983_/A2 VDD VSS sg13cmos5l_a21oi_1
X_7185__208 _7185_/RESET_B VDD VSS sg13cmos5l_tiehi
X_7317__391 _7317_/RESET_B VDD VSS sg13cmos5l_tiehi
X_7092__302 _7092_/RESET_B VDD VSS sg13cmos5l_tiehi
XFILLER_12_540 VDD VSS sg13cmos5l_decap_8
XANTENNA_5 _7147_/D VDD VSS sg13cmos5l_antennanp
XFILLER_35_610 VDD VSS sg13cmos5l_fill_2
X_6930_ _6931_/B _6930_/A _6930_/B VDD VSS sg13cmos5l_nand2_1
XFILLER_34_142 VDD VSS sg13cmos5l_fill_2
XFILLER_35_665 VDD VSS sg13cmos5l_fill_1
X_5743_ _5745_/B _5744_/B _5744_/C _5770_/A VDD VSS sg13cmos5l_a21o_1
X_5812_ _5812_/Y _5812_/A _5812_/B _5812_/C VDD VSS sg13cmos5l_nand3_1
X_6861_ _6863_/B _7039_/Q _6860_/B _4470_/A VDD VSS sg13cmos5l_a21oi_1
X_6792_ _6794_/B _7035_/Q _6792_/B VDD VSS sg13cmos5l_xnor2_1
X_4556_ _4556_/X _4556_/A _4556_/B VDD VSS sg13cmos5l_xor2_1
X_4625_ _4627_/B _4625_/A _4625_/B VDD VSS sg13cmos5l_xnor2_1
X_5674_ _5715_/B _5735_/A _5674_/B VDD VSS sg13cmos5l_xnor2_1
X_4487_ _4503_/B _7041_/Q _4488_/B VDD VSS sg13cmos5l_nand2_1
X_5108_ _5108_/Y _5109_/A _5109_/B VDD VSS sg13cmos5l_nor2_1
X_6157_ _7304_/D _7304_/Q _7272_/Q _6164_/S VDD VSS sg13cmos5l_mux2_1
X_6226_ _6229_/A _6226_/A _6226_/B VDD VSS sg13cmos5l_xnor2_1
X_7275_ _7275_/Q _7308_/CLK _7275_/D _7275_/RESET_B VDD VSS sg13cmos5l_dfrbpq_1
XFILLER_25_175 VDD VSS sg13cmos5l_fill_1
XFILLER_26_621 VDD VSS sg13cmos5l_fill_1
XFILLER_26_687 VDD VSS sg13cmos5l_fill_2
XFILLER_38_470 VDD VSS sg13cmos5l_fill_2
X_5039_ _5045_/A _5154_/A _5006_/B _5004_/Y VDD VSS sg13cmos5l_a21oi_1
X_6088_ _7197_/D _6066_/X _7197_/Q _6090_/S VDD VSS sg13cmos5l_mux2_1
XFILLER_5_514 VDD VSS sg13cmos5l_fill_1
XFILLER_17_665 VDD VSS sg13cmos5l_fill_2
XFILLER_31_112 VDD VSS sg13cmos5l_fill_1
X_4410_ _4412_/B _4410_/A _4410_/B _4410_/C VDD VSS sg13cmos5l_or3_1
X_5390_ _5393_/B _5492_/A _5390_/B VDD VSS sg13cmos5l_xnor2_1
X_4272_ _4272_/Y _4266_/A _4269_/Y _4271_/X VDD VSS sg13cmos5l_o21ai_1
X_4341_ _4352_/A _7030_/Q _4341_/B VDD VSS sg13cmos5l_xnor2_1
X_6011_ _6011_/Y _6011_/A _6010_/Y VDD VSS sg13cmos5l_nor2b_1
X_7060_ _7060_/Q _7104_/CLK _7060_/D _7060_/RESET_B VDD VSS sg13cmos5l_dfrbpq_1
XFILLER_23_624 VDD VSS sg13cmos5l_fill_2
XFILLER_27_407 VDD VSS sg13cmos5l_fill_2
XFILLER_39_278 VDD VSS sg13cmos5l_fill_1
X_7175__218 _7175_/RESET_B VDD VSS sg13cmos5l_tiehi
X_6913_ _6914_/A _6913_/A _6912_/Y VDD VSS sg13cmos5l_nor2b_1
X_3987_ _4001_/B _3987_/A _3987_/B VDD VSS sg13cmos5l_xor2_1
X_5726_ _5728_/B _7091_/Q _5690_/C _5687_/Y VDD VSS sg13cmos5l_a21oi_1
X_6844_ _6857_/B _6871_/A _6844_/B VDD VSS sg13cmos5l_nor2_1
X_6775_ _6777_/B _6775_/A _6775_/B VDD VSS sg13cmos5l_xor2_1
X_4539_ _4540_/B _4539_/A _4539_/B VDD VSS sg13cmos5l_xnor2_1
X_4608_ _4608_/Y _4635_/B _4607_/Y _5376_/A VDD VSS sg13cmos5l_o21ai_1
X_5588_ _5590_/A _5588_/A _5588_/B VDD VSS sg13cmos5l_nor2_1
X_5657_ _5660_/B _5657_/A _5657_/B VDD VSS sg13cmos5l_nor2_1
X_7258_ _7259_/D _7266_/CLK _7258_/D _6610_/A VDD VSS sg13cmos5l_dfrbpq_1
X_7082__312 _7082_/RESET_B VDD VSS sg13cmos5l_tiehi
X_6209_ _6210_/B _6209_/A _6209_/B VDD VSS sg13cmos5l_xor2_1
X_7189_ _7189_/Q _7220_/CLK _7189_/D _7189_/RESET_B VDD VSS sg13cmos5l_dfrbpq_1
XFILLER_13_123 VDD VSS sg13cmos5l_fill_1
XFILLER_14_613 VDD VSS sg13cmos5l_fill_2
XFILLER_26_440 VDD VSS sg13cmos5l_decap_4
XFILLER_9_105 VDD VSS sg13cmos5l_fill_2
X_7314__394 _7314_/RESET_B VDD VSS sg13cmos5l_tiehi
XFILLER_5_311 VDD VSS sg13cmos5l_fill_2
XFILLER_36_226 VDD VSS sg13cmos5l_fill_2
XFILLER_36_237 VDD VSS sg13cmos5l_fill_2
XFILLER_32_498 VDD VSS sg13cmos5l_fill_1
X_3772_ _3834_/B _3768_/B _3768_/C _3768_/A VDD VSS sg13cmos5l_o21ai_1
X_3841_ _3843_/B _5159_/A _7124_/Q VDD VSS sg13cmos5l_nor2_1
X_3910_ _4140_/A _6745_/A _4133_/B _3909_/A VDD VSS sg13cmos5l_a21oi_1
X_4890_ _4891_/C _4889_/B _4889_/C _4889_/A VDD VSS sg13cmos5l_o21ai_1
X_5511_ _5513_/C _5511_/A _5511_/B VDD VSS sg13cmos5l_xnor2_1
X_6560_ _6562_/B _6560_/A _6560_/B VDD VSS sg13cmos5l_or2_1
X_4324_ _6972_/A _4325_/A _4325_/B _4325_/C VDD VSS sg13cmos5l_nor3_1
X_5373_ _5451_/A _5374_/A _5374_/B _5374_/C VDD VSS sg13cmos5l_nand3_1
X_5442_ _5444_/B _5442_/A _5442_/B VDD VSS sg13cmos5l_xor2_1
X_7112_ _7112_/Q _7244_/CLK _7112_/D _7112_/RESET_B VDD VSS sg13cmos5l_dfrbpq_1
X_6491_ _7020_/D _6480_/C _6489_/X _6490_/Y VDD VSS sg13cmos5l_a21oi_1
X_4186_ _4410_/A _7063_/Q _4186_/B _4186_/C VDD VSS sg13cmos5l_and3_1
X_4255_ _4255_/Y _4258_/B _4258_/A VDD VSS sg13cmos5l_nand2b_1
Xfanout106 _6205_/A _3797_/Y VDD VSS sg13cmos5l_buf_1
Xfanout117 _6185_/A _3809_/X VDD VSS sg13cmos5l_buf_1
Xfanout128 _5294_/B _3816_/X VDD VSS sg13cmos5l_buf_1
Xfanout139 _6925_/B1 _5224_/A VDD VSS sg13cmos5l_buf_1
X_7043_ _7043_/Q clkload7/A _7043_/D _7043_/RESET_B VDD VSS sg13cmos5l_dfrbpq_1
X_6827_ _6827_/X _6827_/A _6827_/B VDD VSS sg13cmos5l_or2_1
X_5709_ _5710_/A _5647_/A _5707_/B _5705_/Y VDD VSS sg13cmos5l_a21o_1
X_6758_ _6758_/Y _6742_/Y _6760_/B _6740_/A VDD VSS sg13cmos5l_o21ai_1
X_6689_ _6765_/A _6689_/A _6689_/B VDD VSS sg13cmos5l_xor2_1
XFILLER_27_760 VDD VSS sg13cmos5l_fill_1
XFILLER_26_270 VDD VSS sg13cmos5l_fill_1
XFILLER_10_660 VDD VSS sg13cmos5l_fill_1
X_4040_ _4077_/B _6226_/A _4040_/B VDD VSS sg13cmos5l_xnor2_1
X_4942_ _4944_/C _4942_/A _4942_/B VDD VSS sg13cmos5l_nor2_1
X_5991_ _5992_/B _6091_/A _6091_/C _6091_/D VDD VSS sg13cmos5l_nand3_1
X_7072__322 _7072_/RESET_B VDD VSS sg13cmos5l_tiehi
XFILLER_20_435 VDD VSS sg13cmos5l_fill_2
X_3686_ _3781_/A _7159_/Q _7158_/Q VDD VSS sg13cmos5l_and2_1
X_3755_ _3755_/Y _3756_/B _3756_/C _7120_/Q VDD VSS sg13cmos5l_o21ai_1
X_3824_ _4611_/C _3824_/A _3824_/B _3824_/C VDD VSS sg13cmos5l_nand3_1
X_4873_ _4920_/A _4873_/A _4873_/B VDD VSS sg13cmos5l_nor2_1
X_6612_ _6614_/B _6612_/A _6612_/B VDD VSS sg13cmos5l_xnor2_1
X_6543_ _6544_/C _4611_/A _4611_/C _6196_/A VDD VSS sg13cmos5l_a21oi_1
X_6474_ _6476_/B _7019_/Q _6474_/B VDD VSS sg13cmos5l_xnor2_1
X_4307_ _4308_/C _4306_/B _4306_/C _4306_/A VDD VSS sg13cmos5l_o21ai_1
X_5287_ _5288_/B _5287_/A _5287_/B _5287_/C VDD VSS sg13cmos5l_nand3_1
X_5356_ _5357_/B _5481_/B _5355_/B _5356_/S VDD VSS sg13cmos5l_mux2_1
X_5425_ _5425_/Y _5450_/A _5424_/B _5528_/A VDD VSS sg13cmos5l_o21ai_1
X_4169_ _4171_/B _4169_/A _4169_/B VDD VSS sg13cmos5l_nand2_1
X_4238_ _4238_/Y _6469_/A _6467_/B VDD VSS sg13cmos5l_nand2_1
X_7026_ _7026_/Q _7224_/CLK _7026_/D _7026_/RESET_B VDD VSS sg13cmos5l_dfrbpq_1
X_7311__397 _7311_/RESET_B VDD VSS sg13cmos5l_tiehi
XFILLER_3_656 VDD VSS sg13cmos5l_fill_1
XFILLER_30_700 VDD VSS sg13cmos5l_fill_1
XFILLER_9_34 VDD VSS sg13cmos5l_fill_1
X_5141_ _5176_/B _5142_/B _5142_/C _5142_/A VDD VSS sg13cmos5l_a21oi_1
X_5210_ _5222_/B _5211_/A _5211_/B VDD VSS sg13cmos5l_nor2_1
X_6190_ _6190_/Y _6189_/A _6189_/B _6563_/A VDD VSS sg13cmos5l_a21oi_1
XFILLER_25_516 VDD VSS sg13cmos5l_fill_1
X_4023_ _4026_/A _4053_/C _6495_/B VDD VSS sg13cmos5l_nor2_1
X_5072_ _5073_/B _5072_/A _5072_/B VDD VSS sg13cmos5l_nand2_1
X_4856_ _4858_/B _4855_/B _4855_/C _4855_/A VDD VSS sg13cmos5l_a21o_1
X_4925_ _6746_/A _6720_/A _6720_/B VDD VSS sg13cmos5l_nand2b_1
X_5974_ _5974_/Y _5972_/Y _5973_/Y _5983_/A2 VDD VSS sg13cmos5l_a21oi_1
XFILLER_21_766 VDD VSS sg13cmos5l_fill_2
X_3669_ _4865_/A _7086_/Q VDD VSS sg13cmos5l_inv_1
X_3738_ _3898_/B _3891_/A _3738_/B VDD VSS sg13cmos5l_nand2_1
X_3807_ _3864_/A _3808_/A _5351_/B VDD VSS sg13cmos5l_nor2_1
X_4787_ _4790_/A _7057_/Q _4787_/B VDD VSS sg13cmos5l_xnor2_1
X_6526_ _6527_/B _6525_/A _6525_/B _6525_/C VDD VSS sg13cmos5l_o21ai_1
X_6457_ _6457_/X _6457_/A _6457_/B VDD VSS sg13cmos5l_xor2_1
X_5339_ _5341_/B _5339_/A _5339_/B VDD VSS sg13cmos5l_xnor2_1
X_5408_ _5436_/B _5435_/B VDD VSS sg13cmos5l_inv_1
X_6388_ _7010_/D _6396_/B _6386_/Y _6387_/Y VDD VSS sg13cmos5l_a21oi_1
X_7009_ _7009_/Q clkload6/A _7009_/D _7009_/RESET_B VDD VSS sg13cmos5l_dfrbpq_1
XFILLER_24_582 VDD VSS sg13cmos5l_decap_8
XFILLER_7_214 VDD VSS sg13cmos5l_fill_2
X_4710_ _7082_/D _5376_/A _4710_/B _4710_/C VDD VSS sg13cmos5l_and3_1
X_5690_ _5692_/B _7091_/Q _5690_/B _5690_/C VDD VSS sg13cmos5l_and3_1
X_4572_ _7076_/D _4569_/Y _4570_/Y _4571_/Y VDD VSS sg13cmos5l_a21oi_1
X_4641_ _4652_/A _4618_/A _4618_/B _4616_/Y VDD VSS sg13cmos5l_a21oi_1
X_7291_ _7291_/Q _7308_/CLK _7291_/D _7291_/RESET_B VDD VSS sg13cmos5l_dfrbpq_1
Xfanout8 _6860_/B _5833_/B VDD VSS sg13cmos5l_buf_1
X_6311_ _6311_/Y _7005_/Q _6707_/A VDD VSS sg13cmos5l_nand2_1
X_5124_ _5127_/C _5124_/A _5124_/B VDD VSS sg13cmos5l_xnor2_1
X_6173_ _6174_/A _6991_/Q _6172_/B _6584_/B1 VDD VSS sg13cmos5l_o21ai_1
X_6242_ _6998_/D _6610_/A _6242_/B _6251_/B VDD VSS sg13cmos5l_and3_1
X_7225__442 _7225_/RESET_B VDD VSS sg13cmos5l_tiehi
XFILLER_37_184 VDD VSS sg13cmos5l_fill_1
XFILLER_38_652 VDD VSS sg13cmos5l_fill_2
X_4006_ _4681_/A _5351_/B _5330_/C VDD VSS sg13cmos5l_xnor2_1
X_5055_ _5059_/B _5056_/A _5056_/B _5098_/B VDD VSS sg13cmos5l_a21o_1
X_4839_ _4839_/Y _4613_/A _4733_/B _4806_/B _4806_/A VDD VSS sg13cmos5l_a22oi_1
X_4908_ _4910_/B _4908_/A _4908_/B VDD VSS sg13cmos5l_xnor2_1
X_5888_ _5889_/B _7137_/Q _5896_/A2 _5896_/B1 _7136_/Q VDD VSS sg13cmos5l_a22oi_1
X_5957_ _5957_/Y _7223_/Q _5981_/A2 _5961_/B1 _7193_/Q VDD VSS sg13cmos5l_a22oi_1
X_6509_ _6511_/B _7022_/Q _6509_/B VDD VSS sg13cmos5l_xnor2_1
XFILLER_31_305 VDD VSS sg13cmos5l_fill_1
XFILLER_12_574 VDD VSS sg13cmos5l_fill_2
Xclkbuf_leaf_14_sd_clk clkload9/A clkload1/A VDD VSS sg13cmos5l_buf_8
X_6860_ _6863_/A _7040_/Q _6860_/B VDD VSS sg13cmos5l_xnor2_1
XFILLER_22_316 VDD VSS sg13cmos5l_fill_2
X_5673_ _5674_/B _5673_/A _5673_/B VDD VSS sg13cmos5l_xor2_1
X_5742_ _5759_/A _5744_/B _5744_/C _5770_/A VDD VSS sg13cmos5l_a21oi_1
X_5811_ _5824_/A _5811_/A _5811_/B VDD VSS sg13cmos5l_nor2_1
X_6791_ _6792_/B _6791_/A _6791_/B VDD VSS sg13cmos5l_nor2_1
X_4486_ _4488_/B _4486_/A _4486_/B VDD VSS sg13cmos5l_xor2_1
X_4555_ _4555_/Y _4556_/A _4556_/B VDD VSS sg13cmos5l_nor2_1
X_4624_ _4625_/B _4622_/X _4624_/B VDD VSS sg13cmos5l_nand2b_1
X_7274_ _7274_/Q _7308_/CLK _7274_/D _7274_/RESET_B VDD VSS sg13cmos5l_dfrbpq_1
X_5107_ _5109_/B _7092_/Q _5107_/B VDD VSS sg13cmos5l_xnor2_1
X_6087_ _7196_/D _6061_/Y _7196_/Q _6087_/S VDD VSS sg13cmos5l_mux2_1
X_6156_ _7303_/D _7303_/Q _7271_/Q _6164_/S VDD VSS sg13cmos5l_mux2_1
X_6225_ _6226_/B _6997_/Q _6573_/A VDD VSS sg13cmos5l_xnor2_1
X_5038_ _5046_/A _5818_/C _5094_/A VDD VSS sg13cmos5l_nand2_1
X_7191__202 _7191_/RESET_B VDD VSS sg13cmos5l_tiehi
X_6989_ _6990_/C _6989_/A _4463_/B VDD VSS sg13cmos5l_nor2b_1
XFILLER_21_360 VDD VSS sg13cmos5l_fill_2
XFILLER_16_154 VDD VSS sg13cmos5l_fill_2
XFILLER_31_135 VDD VSS sg13cmos5l_fill_1
XFILLER_32_625 VDD VSS sg13cmos5l_fill_1
X_7215__452 _7215_/RESET_B VDD VSS sg13cmos5l_tiehi
XFILLER_8_397 VDD VSS sg13cmos5l_fill_1
X_4340_ _6965_/B _4340_/A _4340_/B VDD VSS sg13cmos5l_xnor2_1
Xclkbuf_leaf_1_sd_clk _7316_/CLK clkbuf_leaf_2_sd_clk/A VDD VSS sg13cmos5l_buf_8
XFILLER_39_235 VDD VSS sg13cmos5l_fill_2
X_4271_ _4271_/X _4271_/A _4271_/B VDD VSS sg13cmos5l_and2_1
X_6010_ _6010_/Y _6010_/A _6010_/B _6010_/C VDD VSS sg13cmos5l_nand3_1
X_7222__445 _7222_/RESET_B VDD VSS sg13cmos5l_tiehi
X_6912_ _6912_/Y _6912_/A _6912_/B _6912_/C VDD VSS sg13cmos5l_nand3_1
X_6843_ _6844_/B _6857_/A _6843_/B VDD VSS sg13cmos5l_nand2b_1
X_3986_ _3986_/X _3987_/A _3987_/B VDD VSS sg13cmos5l_and2_1
X_4607_ _4607_/Y _4607_/A _4596_/C VDD VSS sg13cmos5l_nor2b_1
X_5656_ _5660_/A _7090_/Q _5656_/B VDD VSS sg13cmos5l_xnor2_1
X_5725_ _5728_/A _7092_/Q _5725_/B VDD VSS sg13cmos5l_xnor2_1
X_6774_ _6775_/B _7034_/Q _6774_/B VDD VSS sg13cmos5l_xnor2_1
X_4469_ _4470_/B _6440_/A _6415_/B VDD VSS sg13cmos5l_nor2_1
X_4538_ _4546_/A _4539_/B _4539_/A VDD VSS sg13cmos5l_nor2b_1
X_5587_ _5588_/B _5662_/A VDD VSS sg13cmos5l_inv_1
X_6208_ _6208_/Y _6208_/A VDD VSS sg13cmos5l_inv_1
X_7257_ _7258_/D _7266_/CLK _7257_/D _6610_/A VDD VSS sg13cmos5l_dfrbpq_1
X_6139_ _7286_/D _7286_/Q _7148_/Q _6139_/S VDD VSS sg13cmos5l_mux2_1
X_7188_ _7188_/Q clkload4/A _7188_/D _7188_/RESET_B VDD VSS sg13cmos5l_dfrbpq_1
X_7128__265 _7128_/RESET_B VDD VSS sg13cmos5l_tiehi
XFILLER_17_452 VDD VSS sg13cmos5l_fill_1
X_3771_ _3868_/A _7117_/Q _6592_/A VDD VSS sg13cmos5l_and2_1
X_3840_ _3874_/A _3848_/B _3853_/A _3848_/A VDD VSS sg13cmos5l_o21ai_1
X_5510_ _5547_/A _5510_/A VDD VSS sg13cmos5l_inv_1
X_6490_ _6490_/Y _6480_/C _6489_/X _6930_/A VDD VSS sg13cmos5l_o21ai_1
X_4323_ _4325_/C _7031_/Q _4337_/B _4321_/Y VDD VSS sg13cmos5l_a21oi_1
X_5372_ _5374_/C _5372_/A _5372_/B _5372_/C VDD VSS sg13cmos5l_nand3_1
X_5441_ _5442_/B _7110_/Q _5441_/B VDD VSS sg13cmos5l_xnor2_1
Xfanout107 _5896_/A2 _5875_/B VDD VSS sg13cmos5l_buf_1
Xfanout118 _5961_/B1 _5930_/Y VDD VSS sg13cmos5l_buf_1
Xfanout129 _5901_/A _5907_/A VDD VSS sg13cmos5l_buf_1
X_7181__212 _7181_/RESET_B VDD VSS sg13cmos5l_tiehi
X_7111_ _7111_/Q _7244_/CLK _7111_/D _7111_/RESET_B VDD VSS sg13cmos5l_dfrbpq_1
X_7042_ _7042_/Q clkload6/A _7042_/D _7042_/RESET_B VDD VSS sg13cmos5l_dfrbpq_1
X_4185_ _4186_/C _5820_/A _4185_/B _4185_/C VDD VSS sg13cmos5l_nand3_1
X_4254_ _4258_/B _7020_/Q _4254_/B VDD VSS sg13cmos5l_xnor2_1
XFILLER_23_488 VDD VSS sg13cmos5l_fill_1
X_6826_ _6830_/B _6826_/A _6825_/Y VDD VSS sg13cmos5l_nor2b_1
X_6757_ _6760_/B _6757_/A _6757_/B VDD VSS sg13cmos5l_xor2_1
X_3969_ _3976_/A _5534_/A _3977_/B _3967_/Y VDD VSS sg13cmos5l_a21oi_1
X_5639_ _5639_/Y _5639_/A _5639_/B _5639_/C VDD VSS sg13cmos5l_nand3_1
X_5708_ _5718_/A _5566_/A _5566_/B _5707_/Y VDD VSS sg13cmos5l_a21o_1
X_6688_ _6737_/A _6687_/A _6687_/B _6689_/A VDD VSS sg13cmos5l_a21oi_1
X_7309_ _7309_/Q clkload4/A _7309_/D _7309_/RESET_B VDD VSS sg13cmos5l_dfrbpq_1
X_7212__455 _7212_/RESET_B VDD VSS sg13cmos5l_tiehi
XFILLER_37_558 VDD VSS sg13cmos5l_decap_4
X_3823_ _3869_/B _3822_/A _3799_/Y _3802_/Y VDD VSS sg13cmos5l_o21ai_1
X_4872_ _4872_/X _4828_/A _4825_/Y _4826_/Y VDD VSS sg13cmos5l_a21o_1
X_4941_ _4997_/A _4941_/A _4941_/B VDD VSS sg13cmos5l_xor2_1
X_5990_ _7169_/D _7169_/Q _6107_/B VDD VSS sg13cmos5l_xnor2_1
X_6611_ _6621_/A _4288_/A _6598_/B _6599_/Y VDD VSS sg13cmos5l_o21ai_1
X_3685_ _3763_/A _7162_/Q _7161_/Q VDD VSS sg13cmos5l_xnor2_1
X_3754_ _3836_/B _3929_/A _3929_/B _3634_/Y VDD VSS sg13cmos5l_a21oi_1
X_5424_ _5427_/B _5450_/A _5424_/B VDD VSS sg13cmos5l_nor2_1
X_6542_ _6552_/A _4331_/A _6528_/B _6529_/Y VDD VSS sg13cmos5l_o21ai_1
X_6473_ _6479_/A _6473_/A _6473_/B VDD VSS sg13cmos5l_and2_1
X_4237_ _4243_/A _7047_/Q _6474_/B VDD VSS sg13cmos5l_xnor2_1
X_4306_ _4308_/B _4306_/A _4306_/B _4306_/C VDD VSS sg13cmos5l_or3_1
X_5286_ _5286_/Y _5287_/A _5287_/B _5287_/C VDD VSS sg13cmos5l_a21oi_1
X_5355_ _5481_/B _5355_/A _5355_/B VDD VSS sg13cmos5l_xnor2_1
X_7025_ _7025_/Q _7266_/CLK _7025_/D _7025_/RESET_B VDD VSS sg13cmos5l_dfrbpq_1
XFILLER_28_514 VDD VSS sg13cmos5l_decap_4
X_4099_ _4101_/B _6656_/B _4887_/B _4927_/B VDD VSS sg13cmos5l_a21oi_1
X_4168_ _4169_/B _7064_/Q _4169_/A _4168_/C VDD VSS sg13cmos5l_nand3_1
XFILLER_11_403 VDD VSS sg13cmos5l_fill_2
XFILLER_36_591 VDD VSS sg13cmos5l_fill_1
XFILLER_7_407 VDD VSS sg13cmos5l_fill_1
X_6809_ _6811_/B _7008_/Q _6795_/B _6793_/Y VDD VSS sg13cmos5l_a21oi_1
XFILLER_0_26 VDD VSS sg13cmos5l_fill_2
X_7171__222 _7171_/RESET_B VDD VSS sg13cmos5l_tiehi
X_5071_ _5072_/B _5070_/A _5070_/B _5076_/C VDD VSS sg13cmos5l_o21ai_1
X_5140_ _5142_/C _5139_/B _5139_/C _7066_/Q VDD VSS sg13cmos5l_a21o_1
X_4022_ _6495_/B _5267_/A _4239_/A VDD VSS sg13cmos5l_xnor2_1
X_5973_ _5973_/Y _7227_/Q _5981_/A2 _5980_/B1 _7212_/Q VDD VSS sg13cmos5l_a22oi_1
XFILLER_33_583 VDD VSS sg13cmos5l_decap_8
X_3806_ _3806_/X _3806_/A _3806_/B VDD VSS sg13cmos5l_xor2_1
X_4786_ _4787_/B _4786_/A _4786_/B VDD VSS sg13cmos5l_xor2_1
X_4855_ _4858_/A _4855_/A _4855_/B _4855_/C VDD VSS sg13cmos5l_nand3_1
X_4924_ _4936_/A _4924_/A _4924_/B VDD VSS sg13cmos5l_and2_1
X_3668_ _5473_/A _7084_/Q VDD VSS sg13cmos5l_inv_1
X_3737_ _3737_/X _3891_/A _3738_/B VDD VSS sg13cmos5l_and2_1
X_5407_ _5435_/B _5534_/A _5407_/B VDD VSS sg13cmos5l_xnor2_1
X_6525_ _6547_/A _6525_/A _6525_/B _6525_/C VDD VSS sg13cmos5l_nor3_1
X_6456_ _6456_/Y _6457_/A _6457_/B VDD VSS sg13cmos5l_nand2b_1
X_6387_ _6387_/Y _6396_/B _6386_/Y _6925_/B1 VDD VSS sg13cmos5l_o21ai_1
XFILLER_28_333 VDD VSS sg13cmos5l_fill_2
X_5269_ _5287_/A _5270_/B _5270_/A VDD VSS sg13cmos5l_nand2b_1
X_5338_ _5339_/B _5338_/A _5338_/B VDD VSS sg13cmos5l_xnor2_1
X_7044__266 _7044_/RESET_B VDD VSS sg13cmos5l_tiehi
X_7008_ _7008_/Q clkload5/A _7008_/D _7008_/RESET_B VDD VSS sg13cmos5l_dfrbpq_1
XFILLER_24_572 VDD VSS sg13cmos5l_fill_2
XFILLER_28_377 VDD VSS sg13cmos5l_fill_2
XFILLER_34_43 VDD VSS sg13cmos5l_fill_1
XFILLER_3_498 VDD VSS sg13cmos5l_fill_2
XFILLER_19_366 VDD VSS sg13cmos5l_fill_2
XFILLER_15_561 VDD VSS sg13cmos5l_fill_2
X_4640_ _4660_/A _4625_/A _4624_/B _4622_/X VDD VSS sg13cmos5l_a21oi_1
X_4571_ _4571_/Y _4569_/Y _4570_/Y _4596_/A VDD VSS sg13cmos5l_o21ai_1
X_6241_ _6251_/B _6240_/A _6240_/B _6240_/C VDD VSS sg13cmos5l_a21o_1
X_7290_ _7290_/Q _7308_/CLK _7290_/D _7290_/RESET_B VDD VSS sg13cmos5l_dfrbpq_1
Xfanout9 _6804_/B _5833_/B VDD VSS sg13cmos5l_buf_1
X_6310_ _7004_/D _6307_/Y _6308_/Y _6309_/Y VDD VSS sg13cmos5l_a21oi_1
XFILLER_34_0 VDD VSS sg13cmos5l_fill_2
X_5054_ _5098_/B _5054_/A _5054_/B VDD VSS sg13cmos5l_xnor2_1
X_5123_ _5124_/B _5123_/A _5123_/B VDD VSS sg13cmos5l_xnor2_1
X_6172_ _6172_/Y _6991_/Q _6172_/B VDD VSS sg13cmos5l_nand2_1
XFILLER_25_369 VDD VSS sg13cmos5l_fill_1
X_4005_ _4719_/B _5351_/B _5253_/A VDD VSS sg13cmos5l_nor2_1
X_5956_ _5956_/Y _7178_/Q _5969_/A2 _5980_/B1 _7208_/Q VDD VSS sg13cmos5l_a22oi_1
X_4769_ _4771_/B _4769_/A _4769_/B VDD VSS sg13cmos5l_xor2_1
X_4838_ _4851_/A _5787_/B _4963_/S VDD VSS sg13cmos5l_xnor2_1
X_4907_ _4908_/B _5684_/A _4907_/B VDD VSS sg13cmos5l_xnor2_1
X_5887_ _7136_/D _5901_/A _5887_/B VDD VSS sg13cmos5l_nor2_1
X_6508_ _6508_/Y _7022_/Q _6509_/B VDD VSS sg13cmos5l_nand2_1
X_6439_ _6440_/B _7015_/Q _6772_/A VDD VSS sg13cmos5l_xnor2_1
XFILLER_29_32 VDD VSS sg13cmos5l_fill_2
XFILLER_29_87 VDD VSS sg13cmos5l_fill_2
XFILLER_12_520 VDD VSS sg13cmos5l_fill_2
X_7244__329 _7244_/RESET_B VDD VSS sg13cmos5l_tiehi
XFILLER_19_152 VDD VSS sg13cmos5l_fill_2
XFILLER_35_601 VDD VSS sg13cmos5l_decap_4
XFILLER_35_612 VDD VSS sg13cmos5l_fill_1
X_5810_ _5829_/B _5810_/A _5810_/B _5810_/C VDD VSS sg13cmos5l_nor3_1
X_7138__245 _7138_/RESET_B VDD VSS sg13cmos5l_tiehi
X_6790_ _6791_/B _6789_/B _6789_/C _6789_/A VDD VSS sg13cmos5l_a21oi_1
X_4623_ _4624_/B _4623_/A _4623_/B VDD VSS sg13cmos5l_or2_1
X_5672_ _5672_/Y _5673_/A _5673_/B VDD VSS sg13cmos5l_nor2_1
X_5741_ _5744_/C _5741_/A _5741_/B _5760_/B VDD VSS sg13cmos5l_or3_1
X_4485_ _4503_/A _4486_/A _4486_/B VDD VSS sg13cmos5l_or2_1
X_4554_ _4556_/B _7048_/Q _4554_/B VDD VSS sg13cmos5l_xnor2_1
X_6224_ _6224_/Y _6997_/Q _6573_/A VDD VSS sg13cmos5l_nand2_1
X_7273_ _7273_/Q _7305_/CLK _7273_/D _7273_/RESET_B VDD VSS sg13cmos5l_dfrbpq_1
XFILLER_38_472 VDD VSS sg13cmos5l_fill_1
X_5037_ _5048_/A _5009_/A _5009_/B _5007_/Y VDD VSS sg13cmos5l_o21ai_1
X_5106_ _5107_/B _5106_/A _5106_/B VDD VSS sg13cmos5l_xnor2_1
X_6086_ _7195_/D _6055_/X _7195_/Q _6087_/S VDD VSS sg13cmos5l_mux2_1
X_6155_ _7302_/D _7302_/Q _7148_/Q _6170_/S VDD VSS sg13cmos5l_mux2_1
XFILLER_13_328 VDD VSS sg13cmos5l_fill_1
XFILLER_15_23 VDD VSS sg13cmos5l_fill_1
XFILLER_25_100 VDD VSS sg13cmos5l_fill_2
XFILLER_26_656 VDD VSS sg13cmos5l_fill_1
X_5939_ _5939_/Y _7218_/Q _5921_/B _5961_/B1 _7188_/Q VDD VSS sg13cmos5l_a22oi_1
X_6988_ _7064_/D _4453_/A _6986_/Y _6987_/Y VDD VSS sg13cmos5l_a21oi_1
XFILLER_21_350 VDD VSS sg13cmos5l_fill_1
Xclkbuf_leaf_20_sd_clk _7305_/CLK clkbuf_leaf_2_sd_clk/A VDD VSS sg13cmos5l_buf_8
XFILLER_29_483 VDD VSS sg13cmos5l_fill_2
XFILLER_8_343 VDD VSS sg13cmos5l_fill_2
X_4270_ _4271_/B _4270_/A _6938_/A VDD VSS sg13cmos5l_nand2_1
XFILLER_23_626 VDD VSS sg13cmos5l_fill_1
XFILLER_23_648 VDD VSS sg13cmos5l_decap_8
XFILLER_35_464 VDD VSS sg13cmos5l_decap_8
X_3985_ _3987_/B _3985_/A _3985_/B VDD VSS sg13cmos5l_xor2_1
X_6911_ _6913_/A _6912_/A _6912_/B _6912_/C VDD VSS sg13cmos5l_a21oi_1
X_6842_ _6843_/B _6842_/A _6842_/B _6842_/C VDD VSS sg13cmos5l_nand3_1
X_6773_ _6773_/X _7034_/Q _6774_/B VDD VSS sg13cmos5l_and2_1
X_4606_ _4635_/B _4604_/Y _4606_/B VDD VSS sg13cmos5l_nand2b_1
X_5586_ _5662_/A _5586_/A _5586_/B VDD VSS sg13cmos5l_xnor2_1
X_5655_ _5656_/B _5655_/A _5655_/B VDD VSS sg13cmos5l_xor2_1
X_5724_ _5725_/B _5724_/A _5724_/B VDD VSS sg13cmos5l_xor2_1
X_4399_ _4403_/C _4399_/A _4399_/B _4399_/C VDD VSS sg13cmos5l_nor3_1
X_4468_ _4468_/Y _4468_/A _6415_/B VDD VSS sg13cmos5l_nand2_1
X_4537_ _4539_/B _7046_/Q _7073_/Q VDD VSS sg13cmos5l_xnor2_1
X_6138_ _7285_/D _7285_/Q _7147_/Q _6139_/S VDD VSS sg13cmos5l_mux2_1
X_6207_ _6208_/A _6209_/A _6209_/B VDD VSS sg13cmos5l_nand2_1
X_7256_ _7257_/D _7266_/CLK _7256_/D _6610_/A VDD VSS sg13cmos5l_dfrbpq_1
X_7187_ _7187_/Q _7308_/CLK _7187_/D _7187_/RESET_B VDD VSS sg13cmos5l_dfrbpq_1
XFILLER_14_604 VDD VSS sg13cmos5l_fill_1
XFILLER_26_453 VDD VSS sg13cmos5l_fill_2
X_6069_ _6071_/A _7318_/Q _7302_/Q VDD VSS sg13cmos5l_xnor2_1
XFILLER_14_615 VDD VSS sg13cmos5l_fill_1
XFILLER_26_88 VDD VSS sg13cmos5l_fill_1
XFILLER_9_107 VDD VSS sg13cmos5l_fill_1
XFILLER_5_368 VDD VSS sg13cmos5l_fill_2
XFILLER_3_37 VDD VSS sg13cmos5l_fill_1
XFILLER_17_431 VDD VSS sg13cmos5l_fill_2
XFILLER_36_228 VDD VSS sg13cmos5l_fill_1
XFILLER_36_239 VDD VSS sg13cmos5l_fill_1
XFILLER_9_663 VDD VSS sg13cmos5l_fill_2
X_3770_ _5351_/A _3770_/A _3770_/B VDD VSS sg13cmos5l_xnor2_1
X_5440_ _5441_/B _5492_/A _5440_/B VDD VSS sg13cmos5l_xor2_1
X_4253_ _4258_/A _4256_/A _4256_/B VDD VSS sg13cmos5l_nand2_1
X_4322_ _4337_/B _4322_/A _4322_/B VDD VSS sg13cmos5l_xor2_1
X_5371_ _5374_/B _5322_/Y _5372_/C VDD VSS sg13cmos5l_nand2b_1
Xfanout108 _5881_/C _5875_/B VDD VSS sg13cmos5l_buf_1
Xfanout119 _5981_/B1 _5930_/Y VDD VSS sg13cmos5l_buf_1
X_7110_ _7110_/Q _7244_/CLK _7110_/D _7110_/RESET_B VDD VSS sg13cmos5l_dfrbpq_1
X_7041_ _7041_/Q clkload6/A _7041_/D _7041_/RESET_B VDD VSS sg13cmos5l_dfrbpq_1
X_4184_ _4186_/B _4185_/B _4185_/C _5820_/A VDD VSS sg13cmos5l_a21o_1
X_3968_ _3977_/B _3968_/A _3968_/B VDD VSS sg13cmos5l_xnor2_1
X_5707_ _5707_/Y _5707_/A _5707_/B VDD VSS sg13cmos5l_nand2_1
X_6825_ _6825_/Y _6825_/A _6825_/B _6825_/C VDD VSS sg13cmos5l_nand3_1
X_6756_ _6766_/B _6757_/A _6757_/B VDD VSS sg13cmos5l_nor2_1
X_3899_ _4154_/B _7165_/Q _3890_/B _5845_/A VDD VSS sg13cmos5l_a21oi_1
X_5569_ _5569_/Y _5570_/A _5570_/B VDD VSS sg13cmos5l_nor2_1
X_5638_ _5679_/A _5639_/A _5639_/B _5639_/C VDD VSS sg13cmos5l_a21oi_1
X_7308_ _7308_/Q _7308_/CLK _7308_/D _7308_/RESET_B VDD VSS sg13cmos5l_dfrbpq_1
X_6687_ _6689_/B _6687_/A _6687_/B VDD VSS sg13cmos5l_nand2_1
X_7239_ _7240_/D clkload8/A _7239_/D input4/X VDD VSS sg13cmos5l_dfrbpq_1
X_7054__246 _7054_/RESET_B VDD VSS sg13cmos5l_tiehi
XFILLER_24_209 VDD VSS sg13cmos5l_fill_1
XFILLER_20_437 VDD VSS sg13cmos5l_fill_1
X_3822_ _3869_/A _3822_/A _3822_/B _3822_/C _3822_/D VDD VSS sg13cmos5l_nor4_1
X_4871_ _4918_/A _4871_/A _4871_/B VDD VSS sg13cmos5l_xnor2_1
X_4940_ _4977_/A _4940_/A VDD VSS sg13cmos5l_inv_1
X_6610_ _7026_/D _6610_/A _6610_/B _6628_/B VDD VSS sg13cmos5l_and3_1
X_6541_ _7023_/D _6538_/Y _6539_/Y _6540_/Y VDD VSS sg13cmos5l_a21oi_1
X_3684_ _3758_/A _7163_/Q _7162_/Q VDD VSS sg13cmos5l_xnor2_1