* Extracted by KLayout with SG13CMOS5L LVS runset on : 11/07/2026 19:03

.SUBCKT MSPHY9932 A A$1 A|A1|B|Y A|A_N|B|B_N|Q A|B|B2|B_N|Q A|B|B_N|Q A|B|X
+ A|B_N|Q A|CLK|Q A|CLK|X A|CLK|X$1 A|D|Q A|D|Q$1 A|Q A|Q$1 A|Q$2 A|Q$3 A|Q$4
+ A|Q$5 A|Q$6 A|Q$7 A|Q$8 A|Q$9 A|Q$10 A|Q$11 A|Q$12 A|Q$13 A|Q$14 A|Q$15
+ A|Q$16 A|Q$17 A|Q$18 A|Q$19 A|Q$20 A|Q$21 A|Q$22 A|Q$23 A|Q$24 A|X A|X$1
+ A|X$2 A|X$3 A|X$4 A|X$5 A|X$6 A|X$7 A|X$8 A|X$9 A|X$10 A|X$11 A|X$12 A|X$13
+ A|X$14 A|X$15 A|X$16 A|X$17 A|X$18 A|X$19 A|X$20 A|X$21 A|X$22 A|X$23 A|X$24
+ A|X$25 A|X$26 A|X$27 A|X$28 A|X$29 A|X$30 A|X$31 A|X$32 A|X$33 A|X$34 A|X$35
+ A|X$36 A|X$37 A|X$38 A|X$39 A|X$40 A|X$41 A|X$42 A|X$43 A|X$44 A|X$45 A|X$46
+ A|X$47 A|X$48 A|X$49 A|X$50 A|X$51 A|X$52 A|X$53 A|X$54 A|X$55 A|X$56 A|X$57
+ A|X$58 A|X$59 A|X$60 A|X$61 A|X$62 A|X$63 A|X$64 A|X$65 A|X$66 A|X$67 A|X$68
+ A|X$69 A|X$70 A|X$71 A|X$72 A|X$73 A|X|rdy A|Y A|Y$1 A|Y$2 A|Y$3 A|Y$4 A|Y$5
+ A|Y$6 A|Y$7 A|Y$8 A|Y$9 A|Y$10 A|Y$11 A|Y$12 A|Y$13 A|Y$14 A|Y$15 A|Y$16
+ A|Y$17 A|Y$18 A|Y$19 A|Y$20 A|Y$21 A|Y$22 A|Y$23 A|Y$24 A|Y$25 A|Y$26 A|Y$27
+ A|Y$28 A|Y$29 A|Y$30 A|anode|cathode|ck|cks|core|pad|padres A|comp_p|outp
+ A|outn A1|D|Q A1|D|Q$1 A1|D|Q$2 A1|D|Q$3 A1|Y A1|Y$1 A1|Y$2 A1|Y$3 A1|Y$4
+ A2|B|B1|C1|Y A2|B|B1|Y A2|B|B1|Y$1 A2|B1|Y A2|D|Q A2|Y A_N|D|Q B|D|Y B|Y
+ B|Y$1 B|Y$2 B1|X B1|Y B1|Y$1 B1|Y$2 B1|Y$3 B2|D|Q B2|D|Q$1 B2|Y B2|Y$1 B2|Y$2
+ BOTTOM|TOP|VGND|VSS|anode|cathode|core|h_sw[0]|h_sw[10]|h_sw[1]|h_sw[2]|h_sw[3]|h_sw[4]|h_sw[5]|h_sw[6]|h_sw[7]|h_sw[8]|h_sw[9]|l_sw[0]|l_sw[10]|l_sw[1]|l_sw[2]|l_sw[3]|l_sw[4]|l_sw[5]|l_sw[6]|l_sw[7]|l_sw[8]|l_sw[9]|out|pad|padres|vc|vcp|vdd|vddr|vip|vss|z
+ C|D|Q C|Q C1|X C1|X$1 CLK|D|GATE|Q CLK|D|GATE|Q$1 CLK|D|GATE|Q$2
+ CLK|D|GATE|Q$3 CLK|D|GATE|Q$4 CLK|D|GATE|Q$5 CLK|D|GATE|Q$6 CLK|D|GATE|Q$7
+ CLK|D|GATE|Q$8 CLK|D|GATE|Q$9 CLK|D|GATE|Q$10 CLK|Y D|L_HI D|Q_N D|Q_N$1
+ D|Q_N$2 D|Q_N$3 D|Q_N$4 D|Q_N$5 D|Q_N$6 D|Q_N$7 D|Q_N$8 D|Q_N$9 D|Q_N$10 D|X
+ D|X$1 D|Y D|Y$1 D|Y$2 D|Y$3 D|Y$4 D|Y$5 Q_N Q_N$1 Q_N$2 Q_N$3 Q_N$4 Q_N$5
+ Q_N$6 Q_N$7 Q_N$8 Q_N$9 Q_N$10 Q_N$11 Q_N$12 Q_N$13 Q_N$14 Q_N$15 Q_N$16
+ Q_N$17 Q_N$18 Q_N$19 Q_N$20 Q_N$21 Q_N$22 Q_N$23 Q_N$24 Q_N$25 Q_N$26 Q_N$27
+ Q_N$28 Q_N$29 Q_N$30 Q_N$31 Q_N$32 Q_N$33 Q_N$34 Q_N$35 Q_N$36 Q_N$37 Q_N$38
+ Q_N$39 Q_N$40 Q_N$41 RESET_B|Y RESET_B|Y$1 RESET_B|Y$2 VDD|VPWR|vdd
+ X|anode|cathode|cko|core|pad|padres
+ X|anode|cathode|core|d_out[0]|dout[0]|pad|padres
+ X|anode|cathode|core|d_out[1]|dout[1]|pad|padres
+ X|anode|cathode|core|d_out[2]|dout[2]|pad|padres
+ X|anode|cathode|core|frame|pad|padres X|ckc|clk X|in_h_sw[0]|nh_sw[0]|x
+ X|in_h_sw[0]|ph_sw[0]|x X|in_h_sw[10]|nh_sw[10]|x X|in_h_sw[10]|ph_sw[10]|x
+ X|in_h_sw[1]|nh_sw[1]|x X|in_h_sw[1]|ph_sw[1]|x X|in_h_sw[2]|nh_sw[2]|x
+ X|in_h_sw[2]|ph_sw[2]|x X|in_h_sw[3]|nh_sw[3]|x X|in_h_sw[3]|ph_sw[3]|x
+ X|in_h_sw[4]|nh_sw[4]|x X|in_h_sw[4]|ph_sw[4]|x X|in_h_sw[5]|nh_sw[5]|x
+ X|in_h_sw[5]|ph_sw[5]|x X|in_h_sw[6]|nh_sw[6]|x X|in_h_sw[6]|ph_sw[6]|x
+ X|in_h_sw[7]|nh_sw[7]|x X|in_h_sw[7]|ph_sw[7]|x X|in_h_sw[8]|nh_sw[8]|x
+ X|in_h_sw[8]|ph_sw[8]|x X|in_h_sw[9]|nh_sw[9]|x X|in_h_sw[9]|ph_sw[9]|x
+ X|in_l_sw[0]|nl_sw[0]|x X|in_l_sw[0]|pl_sw[0]|x X|in_l_sw[10]|nl_sw[10]|x
+ X|in_l_sw[10]|pl_sw[10]|x X|in_l_sw[1]|nl_sw[1]|x X|in_l_sw[1]|pl_sw[1]|x
+ X|in_l_sw[2]|nl_sw[2]|x X|in_l_sw[2]|pl_sw[2]|x X|in_l_sw[3]|nl_sw[3]|x
+ X|in_l_sw[3]|pl_sw[3]|x X|in_l_sw[4]|nl_sw[4]|x X|in_l_sw[4]|pl_sw[4]|x
+ X|in_l_sw[5]|nl_sw[5]|x X|in_l_sw[5]|pl_sw[5]|x X|in_l_sw[6]|nl_sw[6]|x
+ X|in_l_sw[6]|pl_sw[6]|x X|in_l_sw[7]|nl_sw[7]|x X|in_l_sw[7]|pl_sw[7]|x
+ X|in_l_sw[8]|nl_sw[8]|x X|in_l_sw[8]|pl_sw[8]|x X|in_l_sw[9]|nl_sw[9]|x
+ X|in_l_sw[9]|pl_sw[9]|x Y Y$1 Y$2 Y$3 anode|cathode|core|in|pad|padres|vin
+ anode|cathode|core|in|pad|padres|vip anode|cathode|core|pad|padres
+ anode|cathode|core|pad|padres$1 anode|cathode|core|pad|padres$2
+ anode|cathode|core|pad|padres$3 anode|cathode|core|pad|padres$4
+ anode|cathode|core|pad|padres$5 anode|cathode|core|pad|padres$6
+ anode|cathode|core|pad|padres$7 anode|cathode|core|pad|padres$8
+ anode|cathode|vss anode|guard|iovss cathode|iovdd gate|out
+ in|pad|pin1|pin2|vdd out|vcn|vin supply|vdd
M$1
+ BOTTOM|TOP|VGND|VSS|anode|cathode|core|h_sw[0]|h_sw[10]|h_sw[1]|h_sw[2]|h_sw[3]|h_sw[4]|h_sw[5]|h_sw[6]|h_sw[7]|h_sw[8]|h_sw[9]|l_sw[0]|l_sw[10]|l_sw[1]|l_sw[2]|l_sw[3]|l_sw[4]|l_sw[5]|l_sw[6]|l_sw[7]|l_sw[8]|l_sw[9]|out|pad|padres|vc|vcp|vdd|vddr|vip|vss|z
+ X|in_h_sw[0]|nh_sw[0]|x
+ BOTTOM|TOP|VGND|VSS|anode|cathode|core|h_sw[0]|h_sw[10]|h_sw[1]|h_sw[2]|h_sw[3]|h_sw[4]|h_sw[5]|h_sw[6]|h_sw[7]|h_sw[8]|h_sw[9]|l_sw[0]|l_sw[10]|l_sw[1]|l_sw[2]|l_sw[3]|l_sw[4]|l_sw[5]|l_sw[6]|l_sw[7]|l_sw[8]|l_sw[9]|out|pad|padres|vc|vcp|vdd|vddr|vip|vss|z
+ BOTTOM|TOP|VGND|VSS|anode|cathode|core|h_sw[0]|h_sw[10]|h_sw[1]|h_sw[2]|h_sw[3]|h_sw[4]|h_sw[5]|h_sw[6]|h_sw[7]|h_sw[8]|h_sw[9]|l_sw[0]|l_sw[10]|l_sw[1]|l_sw[2]|l_sw[3]|l_sw[4]|l_sw[5]|l_sw[6]|l_sw[7]|l_sw[8]|l_sw[9]|out|pad|padres|vc|vcp|vdd|vddr|vip|vss|z
+ sg13_lv_nmos L=0.13u W=16u AS=3.115p AD=3.115p PS=28.96u PD=28.96u rfmode=0
M$33
+ BOTTOM|TOP|VGND|VSS|anode|cathode|core|h_sw[0]|h_sw[10]|h_sw[1]|h_sw[2]|h_sw[3]|h_sw[4]|h_sw[5]|h_sw[6]|h_sw[7]|h_sw[8]|h_sw[9]|l_sw[0]|l_sw[10]|l_sw[1]|l_sw[2]|l_sw[3]|l_sw[4]|l_sw[5]|l_sw[6]|l_sw[7]|l_sw[8]|l_sw[9]|out|pad|padres|vc|vcp|vdd|vddr|vip|vss|z
+ X|in_h_sw[1]|nh_sw[1]|x
+ BOTTOM|TOP|VGND|VSS|anode|cathode|core|h_sw[0]|h_sw[10]|h_sw[1]|h_sw[2]|h_sw[3]|h_sw[4]|h_sw[5]|h_sw[6]|h_sw[7]|h_sw[8]|h_sw[9]|l_sw[0]|l_sw[10]|l_sw[1]|l_sw[2]|l_sw[3]|l_sw[4]|l_sw[5]|l_sw[6]|l_sw[7]|l_sw[8]|l_sw[9]|out|pad|padres|vc|vcp|vdd|vddr|vip|vss|z
+ BOTTOM|TOP|VGND|VSS|anode|cathode|core|h_sw[0]|h_sw[10]|h_sw[1]|h_sw[2]|h_sw[3]|h_sw[4]|h_sw[5]|h_sw[6]|h_sw[7]|h_sw[8]|h_sw[9]|l_sw[0]|l_sw[10]|l_sw[1]|l_sw[2]|l_sw[3]|l_sw[4]|l_sw[5]|l_sw[6]|l_sw[7]|l_sw[8]|l_sw[9]|out|pad|padres|vc|vcp|vdd|vddr|vip|vss|z
+ sg13_lv_nmos L=0.13u W=8u AS=1.595p AD=1.595p PS=14.88u PD=14.88u rfmode=0
M$49
+ BOTTOM|TOP|VGND|VSS|anode|cathode|core|h_sw[0]|h_sw[10]|h_sw[1]|h_sw[2]|h_sw[3]|h_sw[4]|h_sw[5]|h_sw[6]|h_sw[7]|h_sw[8]|h_sw[9]|l_sw[0]|l_sw[10]|l_sw[1]|l_sw[2]|l_sw[3]|l_sw[4]|l_sw[5]|l_sw[6]|l_sw[7]|l_sw[8]|l_sw[9]|out|pad|padres|vc|vcp|vdd|vddr|vip|vss|z
+ X|in_l_sw[3]|nl_sw[3]|x
+ BOTTOM|TOP|VGND|VSS|anode|cathode|core|h_sw[0]|h_sw[10]|h_sw[1]|h_sw[2]|h_sw[3]|h_sw[4]|h_sw[5]|h_sw[6]|h_sw[7]|h_sw[8]|h_sw[9]|l_sw[0]|l_sw[10]|l_sw[1]|l_sw[2]|l_sw[3]|l_sw[4]|l_sw[5]|l_sw[6]|l_sw[7]|l_sw[8]|l_sw[9]|out|pad|padres|vc|vcp|vdd|vddr|vip|vss|z
+ BOTTOM|TOP|VGND|VSS|anode|cathode|core|h_sw[0]|h_sw[10]|h_sw[1]|h_sw[2]|h_sw[3]|h_sw[4]|h_sw[5]|h_sw[6]|h_sw[7]|h_sw[8]|h_sw[9]|l_sw[0]|l_sw[10]|l_sw[1]|l_sw[2]|l_sw[3]|l_sw[4]|l_sw[5]|l_sw[6]|l_sw[7]|l_sw[8]|l_sw[9]|out|pad|padres|vc|vcp|vdd|vddr|vip|vss|z
+ sg13_lv_nmos L=0.13u W=4u AS=0.835p AD=0.835p PS=7.84u PD=7.84u rfmode=0
M$57
+ BOTTOM|TOP|VGND|VSS|anode|cathode|core|h_sw[0]|h_sw[10]|h_sw[1]|h_sw[2]|h_sw[3]|h_sw[4]|h_sw[5]|h_sw[6]|h_sw[7]|h_sw[8]|h_sw[9]|l_sw[0]|l_sw[10]|l_sw[1]|l_sw[2]|l_sw[3]|l_sw[4]|l_sw[5]|l_sw[6]|l_sw[7]|l_sw[8]|l_sw[9]|out|pad|padres|vc|vcp|vdd|vddr|vip|vss|z
+ X|in_l_sw[4]|nl_sw[4]|x
+ BOTTOM|TOP|VGND|VSS|anode|cathode|core|h_sw[0]|h_sw[10]|h_sw[1]|h_sw[2]|h_sw[3]|h_sw[4]|h_sw[5]|h_sw[6]|h_sw[7]|h_sw[8]|h_sw[9]|l_sw[0]|l_sw[10]|l_sw[1]|l_sw[2]|l_sw[3]|l_sw[4]|l_sw[5]|l_sw[6]|l_sw[7]|l_sw[8]|l_sw[9]|out|pad|padres|vc|vcp|vdd|vddr|vip|vss|z
+ BOTTOM|TOP|VGND|VSS|anode|cathode|core|h_sw[0]|h_sw[10]|h_sw[1]|h_sw[2]|h_sw[3]|h_sw[4]|h_sw[5]|h_sw[6]|h_sw[7]|h_sw[8]|h_sw[9]|l_sw[0]|l_sw[10]|l_sw[1]|l_sw[2]|l_sw[3]|l_sw[4]|l_sw[5]|l_sw[6]|l_sw[7]|l_sw[8]|l_sw[9]|out|pad|padres|vc|vcp|vdd|vddr|vip|vss|z
+ sg13_lv_nmos L=0.13u W=4u AS=0.835p AD=0.835p PS=7.84u PD=7.84u rfmode=0
M$65
+ BOTTOM|TOP|VGND|VSS|anode|cathode|core|h_sw[0]|h_sw[10]|h_sw[1]|h_sw[2]|h_sw[3]|h_sw[4]|h_sw[5]|h_sw[6]|h_sw[7]|h_sw[8]|h_sw[9]|l_sw[0]|l_sw[10]|l_sw[1]|l_sw[2]|l_sw[3]|l_sw[4]|l_sw[5]|l_sw[6]|l_sw[7]|l_sw[8]|l_sw[9]|out|pad|padres|vc|vcp|vdd|vddr|vip|vss|z
+ X|in_l_sw[5]|nl_sw[5]|x
+ BOTTOM|TOP|VGND|VSS|anode|cathode|core|h_sw[0]|h_sw[10]|h_sw[1]|h_sw[2]|h_sw[3]|h_sw[4]|h_sw[5]|h_sw[6]|h_sw[7]|h_sw[8]|h_sw[9]|l_sw[0]|l_sw[10]|l_sw[1]|l_sw[2]|l_sw[3]|l_sw[4]|l_sw[5]|l_sw[6]|l_sw[7]|l_sw[8]|l_sw[9]|out|pad|padres|vc|vcp|vdd|vddr|vip|vss|z
+ BOTTOM|TOP|VGND|VSS|anode|cathode|core|h_sw[0]|h_sw[10]|h_sw[1]|h_sw[2]|h_sw[3]|h_sw[4]|h_sw[5]|h_sw[6]|h_sw[7]|h_sw[8]|h_sw[9]|l_sw[0]|l_sw[10]|l_sw[1]|l_sw[2]|l_sw[3]|l_sw[4]|l_sw[5]|l_sw[6]|l_sw[7]|l_sw[8]|l_sw[9]|out|pad|padres|vc|vcp|vdd|vddr|vip|vss|z
+ sg13_lv_nmos L=0.13u W=4u AS=0.835p AD=0.835p PS=7.84u PD=7.84u rfmode=0
M$73
+ BOTTOM|TOP|VGND|VSS|anode|cathode|core|h_sw[0]|h_sw[10]|h_sw[1]|h_sw[2]|h_sw[3]|h_sw[4]|h_sw[5]|h_sw[6]|h_sw[7]|h_sw[8]|h_sw[9]|l_sw[0]|l_sw[10]|l_sw[1]|l_sw[2]|l_sw[3]|l_sw[4]|l_sw[5]|l_sw[6]|l_sw[7]|l_sw[8]|l_sw[9]|out|pad|padres|vc|vcp|vdd|vddr|vip|vss|z
+ X|in_l_sw[6]|nl_sw[6]|x
+ BOTTOM|TOP|VGND|VSS|anode|cathode|core|h_sw[0]|h_sw[10]|h_sw[1]|h_sw[2]|h_sw[3]|h_sw[4]|h_sw[5]|h_sw[6]|h_sw[7]|h_sw[8]|h_sw[9]|l_sw[0]|l_sw[10]|l_sw[1]|l_sw[2]|l_sw[3]|l_sw[4]|l_sw[5]|l_sw[6]|l_sw[7]|l_sw[8]|l_sw[9]|out|pad|padres|vc|vcp|vdd|vddr|vip|vss|z
+ BOTTOM|TOP|VGND|VSS|anode|cathode|core|h_sw[0]|h_sw[10]|h_sw[1]|h_sw[2]|h_sw[3]|h_sw[4]|h_sw[5]|h_sw[6]|h_sw[7]|h_sw[8]|h_sw[9]|l_sw[0]|l_sw[10]|l_sw[1]|l_sw[2]|l_sw[3]|l_sw[4]|l_sw[5]|l_sw[6]|l_sw[7]|l_sw[8]|l_sw[9]|out|pad|padres|vc|vcp|vdd|vddr|vip|vss|z
+ sg13_lv_nmos L=0.13u W=2u AS=0.455p AD=0.455p PS=4.32u PD=4.32u rfmode=0
M$77
+ BOTTOM|TOP|VGND|VSS|anode|cathode|core|h_sw[0]|h_sw[10]|h_sw[1]|h_sw[2]|h_sw[3]|h_sw[4]|h_sw[5]|h_sw[6]|h_sw[7]|h_sw[8]|h_sw[9]|l_sw[0]|l_sw[10]|l_sw[1]|l_sw[2]|l_sw[3]|l_sw[4]|l_sw[5]|l_sw[6]|l_sw[7]|l_sw[8]|l_sw[9]|out|pad|padres|vc|vcp|vdd|vddr|vip|vss|z
+ X|in_l_sw[7]|nl_sw[7]|x
+ BOTTOM|TOP|VGND|VSS|anode|cathode|core|h_sw[0]|h_sw[10]|h_sw[1]|h_sw[2]|h_sw[3]|h_sw[4]|h_sw[5]|h_sw[6]|h_sw[7]|h_sw[8]|h_sw[9]|l_sw[0]|l_sw[10]|l_sw[1]|l_sw[2]|l_sw[3]|l_sw[4]|l_sw[5]|l_sw[6]|l_sw[7]|l_sw[8]|l_sw[9]|out|pad|padres|vc|vcp|vdd|vddr|vip|vss|z
+ BOTTOM|TOP|VGND|VSS|anode|cathode|core|h_sw[0]|h_sw[10]|h_sw[1]|h_sw[2]|h_sw[3]|h_sw[4]|h_sw[5]|h_sw[6]|h_sw[7]|h_sw[8]|h_sw[9]|l_sw[0]|l_sw[10]|l_sw[1]|l_sw[2]|l_sw[3]|l_sw[4]|l_sw[5]|l_sw[6]|l_sw[7]|l_sw[8]|l_sw[9]|out|pad|padres|vc|vcp|vdd|vddr|vip|vss|z
+ sg13_lv_nmos L=0.13u W=2u AS=0.455p AD=0.455p PS=4.32u PD=4.32u rfmode=0
M$81
+ BOTTOM|TOP|VGND|VSS|anode|cathode|core|h_sw[0]|h_sw[10]|h_sw[1]|h_sw[2]|h_sw[3]|h_sw[4]|h_sw[5]|h_sw[6]|h_sw[7]|h_sw[8]|h_sw[9]|l_sw[0]|l_sw[10]|l_sw[1]|l_sw[2]|l_sw[3]|l_sw[4]|l_sw[5]|l_sw[6]|l_sw[7]|l_sw[8]|l_sw[9]|out|pad|padres|vc|vcp|vdd|vddr|vip|vss|z
+ X|in_l_sw[8]|nl_sw[8]|x
+ BOTTOM|TOP|VGND|VSS|anode|cathode|core|h_sw[0]|h_sw[10]|h_sw[1]|h_sw[2]|h_sw[3]|h_sw[4]|h_sw[5]|h_sw[6]|h_sw[7]|h_sw[8]|h_sw[9]|l_sw[0]|l_sw[10]|l_sw[1]|l_sw[2]|l_sw[3]|l_sw[4]|l_sw[5]|l_sw[6]|l_sw[7]|l_sw[8]|l_sw[9]|out|pad|padres|vc|vcp|vdd|vddr|vip|vss|z
+ BOTTOM|TOP|VGND|VSS|anode|cathode|core|h_sw[0]|h_sw[10]|h_sw[1]|h_sw[2]|h_sw[3]|h_sw[4]|h_sw[5]|h_sw[6]|h_sw[7]|h_sw[8]|h_sw[9]|l_sw[0]|l_sw[10]|l_sw[1]|l_sw[2]|l_sw[3]|l_sw[4]|l_sw[5]|l_sw[6]|l_sw[7]|l_sw[8]|l_sw[9]|out|pad|padres|vc|vcp|vdd|vddr|vip|vss|z
+ sg13_lv_nmos L=0.13u W=1u AS=0.265p AD=0.265p PS=2.56u PD=2.56u rfmode=0
M$83
+ BOTTOM|TOP|VGND|VSS|anode|cathode|core|h_sw[0]|h_sw[10]|h_sw[1]|h_sw[2]|h_sw[3]|h_sw[4]|h_sw[5]|h_sw[6]|h_sw[7]|h_sw[8]|h_sw[9]|l_sw[0]|l_sw[10]|l_sw[1]|l_sw[2]|l_sw[3]|l_sw[4]|l_sw[5]|l_sw[6]|l_sw[7]|l_sw[8]|l_sw[9]|out|pad|padres|vc|vcp|vdd|vddr|vip|vss|z
+ X|in_l_sw[9]|nl_sw[9]|x
+ BOTTOM|TOP|VGND|VSS|anode|cathode|core|h_sw[0]|h_sw[10]|h_sw[1]|h_sw[2]|h_sw[3]|h_sw[4]|h_sw[5]|h_sw[6]|h_sw[7]|h_sw[8]|h_sw[9]|l_sw[0]|l_sw[10]|l_sw[1]|l_sw[2]|l_sw[3]|l_sw[4]|l_sw[5]|l_sw[6]|l_sw[7]|l_sw[8]|l_sw[9]|out|pad|padres|vc|vcp|vdd|vddr|vip|vss|z
+ BOTTOM|TOP|VGND|VSS|anode|cathode|core|h_sw[0]|h_sw[10]|h_sw[1]|h_sw[2]|h_sw[3]|h_sw[4]|h_sw[5]|h_sw[6]|h_sw[7]|h_sw[8]|h_sw[9]|l_sw[0]|l_sw[10]|l_sw[1]|l_sw[2]|l_sw[3]|l_sw[4]|l_sw[5]|l_sw[6]|l_sw[7]|l_sw[8]|l_sw[9]|out|pad|padres|vc|vcp|vdd|vddr|vip|vss|z
+ sg13_lv_nmos L=0.13u W=1u AS=0.265p AD=0.265p PS=2.56u PD=2.56u rfmode=0
M$85
+ BOTTOM|TOP|VGND|VSS|anode|cathode|core|h_sw[0]|h_sw[10]|h_sw[1]|h_sw[2]|h_sw[3]|h_sw[4]|h_sw[5]|h_sw[6]|h_sw[7]|h_sw[8]|h_sw[9]|l_sw[0]|l_sw[10]|l_sw[1]|l_sw[2]|l_sw[3]|l_sw[4]|l_sw[5]|l_sw[6]|l_sw[7]|l_sw[8]|l_sw[9]|out|pad|padres|vc|vcp|vdd|vddr|vip|vss|z
+ X|in_l_sw[10]|nl_sw[10]|x
+ BOTTOM|TOP|VGND|VSS|anode|cathode|core|h_sw[0]|h_sw[10]|h_sw[1]|h_sw[2]|h_sw[3]|h_sw[4]|h_sw[5]|h_sw[6]|h_sw[7]|h_sw[8]|h_sw[9]|l_sw[0]|l_sw[10]|l_sw[1]|l_sw[2]|l_sw[3]|l_sw[4]|l_sw[5]|l_sw[6]|l_sw[7]|l_sw[8]|l_sw[9]|out|pad|padres|vc|vcp|vdd|vddr|vip|vss|z
+ BOTTOM|TOP|VGND|VSS|anode|cathode|core|h_sw[0]|h_sw[10]|h_sw[1]|h_sw[2]|h_sw[3]|h_sw[4]|h_sw[5]|h_sw[6]|h_sw[7]|h_sw[8]|h_sw[9]|l_sw[0]|l_sw[10]|l_sw[1]|l_sw[2]|l_sw[3]|l_sw[4]|l_sw[5]|l_sw[6]|l_sw[7]|l_sw[8]|l_sw[9]|out|pad|padres|vc|vcp|vdd|vddr|vip|vss|z
+ sg13_lv_nmos L=0.13u W=0.5u AS=0.17p AD=0.17p PS=1.68u PD=1.68u rfmode=0
M$86
+ BOTTOM|TOP|VGND|VSS|anode|cathode|core|h_sw[0]|h_sw[10]|h_sw[1]|h_sw[2]|h_sw[3]|h_sw[4]|h_sw[5]|h_sw[6]|h_sw[7]|h_sw[8]|h_sw[9]|l_sw[0]|l_sw[10]|l_sw[1]|l_sw[2]|l_sw[3]|l_sw[4]|l_sw[5]|l_sw[6]|l_sw[7]|l_sw[8]|l_sw[9]|out|pad|padres|vc|vcp|vdd|vddr|vip|vss|z
+ X|in_l_sw[0]|nl_sw[0]|x
+ BOTTOM|TOP|VGND|VSS|anode|cathode|core|h_sw[0]|h_sw[10]|h_sw[1]|h_sw[2]|h_sw[3]|h_sw[4]|h_sw[5]|h_sw[6]|h_sw[7]|h_sw[8]|h_sw[9]|l_sw[0]|l_sw[10]|l_sw[1]|l_sw[2]|l_sw[3]|l_sw[4]|l_sw[5]|l_sw[6]|l_sw[7]|l_sw[8]|l_sw[9]|out|pad|padres|vc|vcp|vdd|vddr|vip|vss|z
+ BOTTOM|TOP|VGND|VSS|anode|cathode|core|h_sw[0]|h_sw[10]|h_sw[1]|h_sw[2]|h_sw[3]|h_sw[4]|h_sw[5]|h_sw[6]|h_sw[7]|h_sw[8]|h_sw[9]|l_sw[0]|l_sw[10]|l_sw[1]|l_sw[2]|l_sw[3]|l_sw[4]|l_sw[5]|l_sw[6]|l_sw[7]|l_sw[8]|l_sw[9]|out|pad|padres|vc|vcp|vdd|vddr|vip|vss|z
+ sg13_lv_nmos L=0.13u W=16u AS=3.115p AD=3.115p PS=28.96u PD=28.96u rfmode=0
M$118
+ BOTTOM|TOP|VGND|VSS|anode|cathode|core|h_sw[0]|h_sw[10]|h_sw[1]|h_sw[2]|h_sw[3]|h_sw[4]|h_sw[5]|h_sw[6]|h_sw[7]|h_sw[8]|h_sw[9]|l_sw[0]|l_sw[10]|l_sw[1]|l_sw[2]|l_sw[3]|l_sw[4]|l_sw[5]|l_sw[6]|l_sw[7]|l_sw[8]|l_sw[9]|out|pad|padres|vc|vcp|vdd|vddr|vip|vss|z
+ X|in_l_sw[1]|nl_sw[1]|x
+ BOTTOM|TOP|VGND|VSS|anode|cathode|core|h_sw[0]|h_sw[10]|h_sw[1]|h_sw[2]|h_sw[3]|h_sw[4]|h_sw[5]|h_sw[6]|h_sw[7]|h_sw[8]|h_sw[9]|l_sw[0]|l_sw[10]|l_sw[1]|l_sw[2]|l_sw[3]|l_sw[4]|l_sw[5]|l_sw[6]|l_sw[7]|l_sw[8]|l_sw[9]|out|pad|padres|vc|vcp|vdd|vddr|vip|vss|z
+ BOTTOM|TOP|VGND|VSS|anode|cathode|core|h_sw[0]|h_sw[10]|h_sw[1]|h_sw[2]|h_sw[3]|h_sw[4]|h_sw[5]|h_sw[6]|h_sw[7]|h_sw[8]|h_sw[9]|l_sw[0]|l_sw[10]|l_sw[1]|l_sw[2]|l_sw[3]|l_sw[4]|l_sw[5]|l_sw[6]|l_sw[7]|l_sw[8]|l_sw[9]|out|pad|padres|vc|vcp|vdd|vddr|vip|vss|z
+ sg13_lv_nmos L=0.13u W=8u AS=1.595p AD=1.595p PS=14.88u PD=14.88u rfmode=0
M$134
+ BOTTOM|TOP|VGND|VSS|anode|cathode|core|h_sw[0]|h_sw[10]|h_sw[1]|h_sw[2]|h_sw[3]|h_sw[4]|h_sw[5]|h_sw[6]|h_sw[7]|h_sw[8]|h_sw[9]|l_sw[0]|l_sw[10]|l_sw[1]|l_sw[2]|l_sw[3]|l_sw[4]|l_sw[5]|l_sw[6]|l_sw[7]|l_sw[8]|l_sw[9]|out|pad|padres|vc|vcp|vdd|vddr|vip|vss|z
+ X|in_l_sw[2]|nl_sw[2]|x
+ BOTTOM|TOP|VGND|VSS|anode|cathode|core|h_sw[0]|h_sw[10]|h_sw[1]|h_sw[2]|h_sw[3]|h_sw[4]|h_sw[5]|h_sw[6]|h_sw[7]|h_sw[8]|h_sw[9]|l_sw[0]|l_sw[10]|l_sw[1]|l_sw[2]|l_sw[3]|l_sw[4]|l_sw[5]|l_sw[6]|l_sw[7]|l_sw[8]|l_sw[9]|out|pad|padres|vc|vcp|vdd|vddr|vip|vss|z
+ BOTTOM|TOP|VGND|VSS|anode|cathode|core|h_sw[0]|h_sw[10]|h_sw[1]|h_sw[2]|h_sw[3]|h_sw[4]|h_sw[5]|h_sw[6]|h_sw[7]|h_sw[8]|h_sw[9]|l_sw[0]|l_sw[10]|l_sw[1]|l_sw[2]|l_sw[3]|l_sw[4]|l_sw[5]|l_sw[6]|l_sw[7]|l_sw[8]|l_sw[9]|out|pad|padres|vc|vcp|vdd|vddr|vip|vss|z
+ sg13_lv_nmos L=0.13u W=8u AS=1.595p AD=1.595p PS=14.88u PD=14.88u rfmode=0
M$150
+ BOTTOM|TOP|VGND|VSS|anode|cathode|core|h_sw[0]|h_sw[10]|h_sw[1]|h_sw[2]|h_sw[3]|h_sw[4]|h_sw[5]|h_sw[6]|h_sw[7]|h_sw[8]|h_sw[9]|l_sw[0]|l_sw[10]|l_sw[1]|l_sw[2]|l_sw[3]|l_sw[4]|l_sw[5]|l_sw[6]|l_sw[7]|l_sw[8]|l_sw[9]|out|pad|padres|vc|vcp|vdd|vddr|vip|vss|z
+ X|in_h_sw[2]|nh_sw[2]|x
+ BOTTOM|TOP|VGND|VSS|anode|cathode|core|h_sw[0]|h_sw[10]|h_sw[1]|h_sw[2]|h_sw[3]|h_sw[4]|h_sw[5]|h_sw[6]|h_sw[7]|h_sw[8]|h_sw[9]|l_sw[0]|l_sw[10]|l_sw[1]|l_sw[2]|l_sw[3]|l_sw[4]|l_sw[5]|l_sw[6]|l_sw[7]|l_sw[8]|l_sw[9]|out|pad|padres|vc|vcp|vdd|vddr|vip|vss|z
+ BOTTOM|TOP|VGND|VSS|anode|cathode|core|h_sw[0]|h_sw[10]|h_sw[1]|h_sw[2]|h_sw[3]|h_sw[4]|h_sw[5]|h_sw[6]|h_sw[7]|h_sw[8]|h_sw[9]|l_sw[0]|l_sw[10]|l_sw[1]|l_sw[2]|l_sw[3]|l_sw[4]|l_sw[5]|l_sw[6]|l_sw[7]|l_sw[8]|l_sw[9]|out|pad|padres|vc|vcp|vdd|vddr|vip|vss|z
+ sg13_lv_nmos L=0.13u W=8u AS=1.595p AD=1.595p PS=14.88u PD=14.88u rfmode=0
M$166
+ BOTTOM|TOP|VGND|VSS|anode|cathode|core|h_sw[0]|h_sw[10]|h_sw[1]|h_sw[2]|h_sw[3]|h_sw[4]|h_sw[5]|h_sw[6]|h_sw[7]|h_sw[8]|h_sw[9]|l_sw[0]|l_sw[10]|l_sw[1]|l_sw[2]|l_sw[3]|l_sw[4]|l_sw[5]|l_sw[6]|l_sw[7]|l_sw[8]|l_sw[9]|out|pad|padres|vc|vcp|vdd|vddr|vip|vss|z
+ X|in_h_sw[8]|nh_sw[8]|x
+ BOTTOM|TOP|VGND|VSS|anode|cathode|core|h_sw[0]|h_sw[10]|h_sw[1]|h_sw[2]|h_sw[3]|h_sw[4]|h_sw[5]|h_sw[6]|h_sw[7]|h_sw[8]|h_sw[9]|l_sw[0]|l_sw[10]|l_sw[1]|l_sw[2]|l_sw[3]|l_sw[4]|l_sw[5]|l_sw[6]|l_sw[7]|l_sw[8]|l_sw[9]|out|pad|padres|vc|vcp|vdd|vddr|vip|vss|z
+ BOTTOM|TOP|VGND|VSS|anode|cathode|core|h_sw[0]|h_sw[10]|h_sw[1]|h_sw[2]|h_sw[3]|h_sw[4]|h_sw[5]|h_sw[6]|h_sw[7]|h_sw[8]|h_sw[9]|l_sw[0]|l_sw[10]|l_sw[1]|l_sw[2]|l_sw[3]|l_sw[4]|l_sw[5]|l_sw[6]|l_sw[7]|l_sw[8]|l_sw[9]|out|pad|padres|vc|vcp|vdd|vddr|vip|vss|z
+ sg13_lv_nmos L=0.13u W=1u AS=0.265p AD=0.265p PS=2.56u PD=2.56u rfmode=0
M$168
+ BOTTOM|TOP|VGND|VSS|anode|cathode|core|h_sw[0]|h_sw[10]|h_sw[1]|h_sw[2]|h_sw[3]|h_sw[4]|h_sw[5]|h_sw[6]|h_sw[7]|h_sw[8]|h_sw[9]|l_sw[0]|l_sw[10]|l_sw[1]|l_sw[2]|l_sw[3]|l_sw[4]|l_sw[5]|l_sw[6]|l_sw[7]|l_sw[8]|l_sw[9]|out|pad|padres|vc|vcp|vdd|vddr|vip|vss|z
+ X|in_h_sw[9]|nh_sw[9]|x
+ BOTTOM|TOP|VGND|VSS|anode|cathode|core|h_sw[0]|h_sw[10]|h_sw[1]|h_sw[2]|h_sw[3]|h_sw[4]|h_sw[5]|h_sw[6]|h_sw[7]|h_sw[8]|h_sw[9]|l_sw[0]|l_sw[10]|l_sw[1]|l_sw[2]|l_sw[3]|l_sw[4]|l_sw[5]|l_sw[6]|l_sw[7]|l_sw[8]|l_sw[9]|out|pad|padres|vc|vcp|vdd|vddr|vip|vss|z
+ BOTTOM|TOP|VGND|VSS|anode|cathode|core|h_sw[0]|h_sw[10]|h_sw[1]|h_sw[2]|h_sw[3]|h_sw[4]|h_sw[5]|h_sw[6]|h_sw[7]|h_sw[8]|h_sw[9]|l_sw[0]|l_sw[10]|l_sw[1]|l_sw[2]|l_sw[3]|l_sw[4]|l_sw[5]|l_sw[6]|l_sw[7]|l_sw[8]|l_sw[9]|out|pad|padres|vc|vcp|vdd|vddr|vip|vss|z
+ sg13_lv_nmos L=0.13u W=1u AS=0.265p AD=0.265p PS=2.56u PD=2.56u rfmode=0
M$170
+ BOTTOM|TOP|VGND|VSS|anode|cathode|core|h_sw[0]|h_sw[10]|h_sw[1]|h_sw[2]|h_sw[3]|h_sw[4]|h_sw[5]|h_sw[6]|h_sw[7]|h_sw[8]|h_sw[9]|l_sw[0]|l_sw[10]|l_sw[1]|l_sw[2]|l_sw[3]|l_sw[4]|l_sw[5]|l_sw[6]|l_sw[7]|l_sw[8]|l_sw[9]|out|pad|padres|vc|vcp|vdd|vddr|vip|vss|z
+ X|in_h_sw[10]|nh_sw[10]|x
+ BOTTOM|TOP|VGND|VSS|anode|cathode|core|h_sw[0]|h_sw[10]|h_sw[1]|h_sw[2]|h_sw[3]|h_sw[4]|h_sw[5]|h_sw[6]|h_sw[7]|h_sw[8]|h_sw[9]|l_sw[0]|l_sw[10]|l_sw[1]|l_sw[2]|l_sw[3]|l_sw[4]|l_sw[5]|l_sw[6]|l_sw[7]|l_sw[8]|l_sw[9]|out|pad|padres|vc|vcp|vdd|vddr|vip|vss|z
+ BOTTOM|TOP|VGND|VSS|anode|cathode|core|h_sw[0]|h_sw[10]|h_sw[1]|h_sw[2]|h_sw[3]|h_sw[4]|h_sw[5]|h_sw[6]|h_sw[7]|h_sw[8]|h_sw[9]|l_sw[0]|l_sw[10]|l_sw[1]|l_sw[2]|l_sw[3]|l_sw[4]|l_sw[5]|l_sw[6]|l_sw[7]|l_sw[8]|l_sw[9]|out|pad|padres|vc|vcp|vdd|vddr|vip|vss|z
+ sg13_lv_nmos L=0.13u W=0.5u AS=0.17p AD=0.17p PS=1.68u PD=1.68u rfmode=0
M$171
+ BOTTOM|TOP|VGND|VSS|anode|cathode|core|h_sw[0]|h_sw[10]|h_sw[1]|h_sw[2]|h_sw[3]|h_sw[4]|h_sw[5]|h_sw[6]|h_sw[7]|h_sw[8]|h_sw[9]|l_sw[0]|l_sw[10]|l_sw[1]|l_sw[2]|l_sw[3]|l_sw[4]|l_sw[5]|l_sw[6]|l_sw[7]|l_sw[8]|l_sw[9]|out|pad|padres|vc|vcp|vdd|vddr|vip|vss|z
+ X|in_h_sw[6]|nh_sw[6]|x
+ BOTTOM|TOP|VGND|VSS|anode|cathode|core|h_sw[0]|h_sw[10]|h_sw[1]|h_sw[2]|h_sw[3]|h_sw[4]|h_sw[5]|h_sw[6]|h_sw[7]|h_sw[8]|h_sw[9]|l_sw[0]|l_sw[10]|l_sw[1]|l_sw[2]|l_sw[3]|l_sw[4]|l_sw[5]|l_sw[6]|l_sw[7]|l_sw[8]|l_sw[9]|out|pad|padres|vc|vcp|vdd|vddr|vip|vss|z
+ BOTTOM|TOP|VGND|VSS|anode|cathode|core|h_sw[0]|h_sw[10]|h_sw[1]|h_sw[2]|h_sw[3]|h_sw[4]|h_sw[5]|h_sw[6]|h_sw[7]|h_sw[8]|h_sw[9]|l_sw[0]|l_sw[10]|l_sw[1]|l_sw[2]|l_sw[3]|l_sw[4]|l_sw[5]|l_sw[6]|l_sw[7]|l_sw[8]|l_sw[9]|out|pad|padres|vc|vcp|vdd|vddr|vip|vss|z
+ sg13_lv_nmos L=0.13u W=2u AS=0.455p AD=0.455p PS=4.32u PD=4.32u rfmode=0
M$175
+ BOTTOM|TOP|VGND|VSS|anode|cathode|core|h_sw[0]|h_sw[10]|h_sw[1]|h_sw[2]|h_sw[3]|h_sw[4]|h_sw[5]|h_sw[6]|h_sw[7]|h_sw[8]|h_sw[9]|l_sw[0]|l_sw[10]|l_sw[1]|l_sw[2]|l_sw[3]|l_sw[4]|l_sw[5]|l_sw[6]|l_sw[7]|l_sw[8]|l_sw[9]|out|pad|padres|vc|vcp|vdd|vddr|vip|vss|z
+ X|in_h_sw[7]|nh_sw[7]|x
+ BOTTOM|TOP|VGND|VSS|anode|cathode|core|h_sw[0]|h_sw[10]|h_sw[1]|h_sw[2]|h_sw[3]|h_sw[4]|h_sw[5]|h_sw[6]|h_sw[7]|h_sw[8]|h_sw[9]|l_sw[0]|l_sw[10]|l_sw[1]|l_sw[2]|l_sw[3]|l_sw[4]|l_sw[5]|l_sw[6]|l_sw[7]|l_sw[8]|l_sw[9]|out|pad|padres|vc|vcp|vdd|vddr|vip|vss|z
+ BOTTOM|TOP|VGND|VSS|anode|cathode|core|h_sw[0]|h_sw[10]|h_sw[1]|h_sw[2]|h_sw[3]|h_sw[4]|h_sw[5]|h_sw[6]|h_sw[7]|h_sw[8]|h_sw[9]|l_sw[0]|l_sw[10]|l_sw[1]|l_sw[2]|l_sw[3]|l_sw[4]|l_sw[5]|l_sw[6]|l_sw[7]|l_sw[8]|l_sw[9]|out|pad|padres|vc|vcp|vdd|vddr|vip|vss|z
+ sg13_lv_nmos L=0.13u W=2u AS=0.455p AD=0.455p PS=4.32u PD=4.32u rfmode=0
M$179
+ BOTTOM|TOP|VGND|VSS|anode|cathode|core|h_sw[0]|h_sw[10]|h_sw[1]|h_sw[2]|h_sw[3]|h_sw[4]|h_sw[5]|h_sw[6]|h_sw[7]|h_sw[8]|h_sw[9]|l_sw[0]|l_sw[10]|l_sw[1]|l_sw[2]|l_sw[3]|l_sw[4]|l_sw[5]|l_sw[6]|l_sw[7]|l_sw[8]|l_sw[9]|out|pad|padres|vc|vcp|vdd|vddr|vip|vss|z
+ X|in_h_sw[3]|nh_sw[3]|x
+ BOTTOM|TOP|VGND|VSS|anode|cathode|core|h_sw[0]|h_sw[10]|h_sw[1]|h_sw[2]|h_sw[3]|h_sw[4]|h_sw[5]|h_sw[6]|h_sw[7]|h_sw[8]|h_sw[9]|l_sw[0]|l_sw[10]|l_sw[1]|l_sw[2]|l_sw[3]|l_sw[4]|l_sw[5]|l_sw[6]|l_sw[7]|l_sw[8]|l_sw[9]|out|pad|padres|vc|vcp|vdd|vddr|vip|vss|z
+ BOTTOM|TOP|VGND|VSS|anode|cathode|core|h_sw[0]|h_sw[10]|h_sw[1]|h_sw[2]|h_sw[3]|h_sw[4]|h_sw[5]|h_sw[6]|h_sw[7]|h_sw[8]|h_sw[9]|l_sw[0]|l_sw[10]|l_sw[1]|l_sw[2]|l_sw[3]|l_sw[4]|l_sw[5]|l_sw[6]|l_sw[7]|l_sw[8]|l_sw[9]|out|pad|padres|vc|vcp|vdd|vddr|vip|vss|z
+ sg13_lv_nmos L=0.13u W=4u AS=0.835p AD=0.835p PS=7.84u PD=7.84u rfmode=0
M$187
+ BOTTOM|TOP|VGND|VSS|anode|cathode|core|h_sw[0]|h_sw[10]|h_sw[1]|h_sw[2]|h_sw[3]|h_sw[4]|h_sw[5]|h_sw[6]|h_sw[7]|h_sw[8]|h_sw[9]|l_sw[0]|l_sw[10]|l_sw[1]|l_sw[2]|l_sw[3]|l_sw[4]|l_sw[5]|l_sw[6]|l_sw[7]|l_sw[8]|l_sw[9]|out|pad|padres|vc|vcp|vdd|vddr|vip|vss|z
+ X|in_h_sw[4]|nh_sw[4]|x
+ BOTTOM|TOP|VGND|VSS|anode|cathode|core|h_sw[0]|h_sw[10]|h_sw[1]|h_sw[2]|h_sw[3]|h_sw[4]|h_sw[5]|h_sw[6]|h_sw[7]|h_sw[8]|h_sw[9]|l_sw[0]|l_sw[10]|l_sw[1]|l_sw[2]|l_sw[3]|l_sw[4]|l_sw[5]|l_sw[6]|l_sw[7]|l_sw[8]|l_sw[9]|out|pad|padres|vc|vcp|vdd|vddr|vip|vss|z
+ BOTTOM|TOP|VGND|VSS|anode|cathode|core|h_sw[0]|h_sw[10]|h_sw[1]|h_sw[2]|h_sw[3]|h_sw[4]|h_sw[5]|h_sw[6]|h_sw[7]|h_sw[8]|h_sw[9]|l_sw[0]|l_sw[10]|l_sw[1]|l_sw[2]|l_sw[3]|l_sw[4]|l_sw[5]|l_sw[6]|l_sw[7]|l_sw[8]|l_sw[9]|out|pad|padres|vc|vcp|vdd|vddr|vip|vss|z
+ sg13_lv_nmos L=0.13u W=4u AS=0.835p AD=0.835p PS=7.84u PD=7.84u rfmode=0
M$195
+ BOTTOM|TOP|VGND|VSS|anode|cathode|core|h_sw[0]|h_sw[10]|h_sw[1]|h_sw[2]|h_sw[3]|h_sw[4]|h_sw[5]|h_sw[6]|h_sw[7]|h_sw[8]|h_sw[9]|l_sw[0]|l_sw[10]|l_sw[1]|l_sw[2]|l_sw[3]|l_sw[4]|l_sw[5]|l_sw[6]|l_sw[7]|l_sw[8]|l_sw[9]|out|pad|padres|vc|vcp|vdd|vddr|vip|vss|z
+ X|in_h_sw[5]|nh_sw[5]|x
+ BOTTOM|TOP|VGND|VSS|anode|cathode|core|h_sw[0]|h_sw[10]|h_sw[1]|h_sw[2]|h_sw[3]|h_sw[4]|h_sw[5]|h_sw[6]|h_sw[7]|h_sw[8]|h_sw[9]|l_sw[0]|l_sw[10]|l_sw[1]|l_sw[2]|l_sw[3]|l_sw[4]|l_sw[5]|l_sw[6]|l_sw[7]|l_sw[8]|l_sw[9]|out|pad|padres|vc|vcp|vdd|vddr|vip|vss|z
+ BOTTOM|TOP|VGND|VSS|anode|cathode|core|h_sw[0]|h_sw[10]|h_sw[1]|h_sw[2]|h_sw[3]|h_sw[4]|h_sw[5]|h_sw[6]|h_sw[7]|h_sw[8]|h_sw[9]|l_sw[0]|l_sw[10]|l_sw[1]|l_sw[2]|l_sw[3]|l_sw[4]|l_sw[5]|l_sw[6]|l_sw[7]|l_sw[8]|l_sw[9]|out|pad|padres|vc|vcp|vdd|vddr|vip|vss|z
+ sg13_lv_nmos L=0.13u W=4u AS=0.835p AD=0.835p PS=7.84u PD=7.84u rfmode=0
M$203
+ BOTTOM|TOP|VGND|VSS|anode|cathode|core|h_sw[0]|h_sw[10]|h_sw[1]|h_sw[2]|h_sw[3]|h_sw[4]|h_sw[5]|h_sw[6]|h_sw[7]|h_sw[8]|h_sw[9]|l_sw[0]|l_sw[10]|l_sw[1]|l_sw[2]|l_sw[3]|l_sw[4]|l_sw[5]|l_sw[6]|l_sw[7]|l_sw[8]|l_sw[9]|out|pad|padres|vc|vcp|vdd|vddr|vip|vss|z
+ A|comp_p|outp \$69079
+ BOTTOM|TOP|VGND|VSS|anode|cathode|core|h_sw[0]|h_sw[10]|h_sw[1]|h_sw[2]|h_sw[3]|h_sw[4]|h_sw[5]|h_sw[6]|h_sw[7]|h_sw[8]|h_sw[9]|l_sw[0]|l_sw[10]|l_sw[1]|l_sw[2]|l_sw[3]|l_sw[4]|l_sw[5]|l_sw[6]|l_sw[7]|l_sw[8]|l_sw[9]|out|pad|padres|vc|vcp|vdd|vddr|vip|vss|z
+ sg13_lv_nmos L=0.13u W=0.55u AS=0.14875p AD=0.187p PS=1.16u PD=1.78u rfmode=0
M$204
+ BOTTOM|TOP|VGND|VSS|anode|cathode|core|h_sw[0]|h_sw[10]|h_sw[1]|h_sw[2]|h_sw[3]|h_sw[4]|h_sw[5]|h_sw[6]|h_sw[7]|h_sw[8]|h_sw[9]|l_sw[0]|l_sw[10]|l_sw[1]|l_sw[2]|l_sw[3]|l_sw[4]|l_sw[5]|l_sw[6]|l_sw[7]|l_sw[8]|l_sw[9]|out|pad|padres|vc|vcp|vdd|vddr|vip|vss|z
+ \$69079 A|X
+ BOTTOM|TOP|VGND|VSS|anode|cathode|core|h_sw[0]|h_sw[10]|h_sw[1]|h_sw[2]|h_sw[3]|h_sw[4]|h_sw[5]|h_sw[6]|h_sw[7]|h_sw[8]|h_sw[9]|l_sw[0]|l_sw[10]|l_sw[1]|l_sw[2]|l_sw[3]|l_sw[4]|l_sw[5]|l_sw[6]|l_sw[7]|l_sw[8]|l_sw[9]|out|pad|padres|vc|vcp|vdd|vddr|vip|vss|z
+ sg13_lv_nmos L=0.13u W=0.74u AS=0.14875p AD=0.2886p PS=1.16u PD=2.26u rfmode=0
M$205 A|X$1 \$69080
+ BOTTOM|TOP|VGND|VSS|anode|cathode|core|h_sw[0]|h_sw[10]|h_sw[1]|h_sw[2]|h_sw[3]|h_sw[4]|h_sw[5]|h_sw[6]|h_sw[7]|h_sw[8]|h_sw[9]|l_sw[0]|l_sw[10]|l_sw[1]|l_sw[2]|l_sw[3]|l_sw[4]|l_sw[5]|l_sw[6]|l_sw[7]|l_sw[8]|l_sw[9]|out|pad|padres|vc|vcp|vdd|vddr|vip|vss|z
+ BOTTOM|TOP|VGND|VSS|anode|cathode|core|h_sw[0]|h_sw[10]|h_sw[1]|h_sw[2]|h_sw[3]|h_sw[4]|h_sw[5]|h_sw[6]|h_sw[7]|h_sw[8]|h_sw[9]|l_sw[0]|l_sw[10]|l_sw[1]|l_sw[2]|l_sw[3]|l_sw[4]|l_sw[5]|l_sw[6]|l_sw[7]|l_sw[8]|l_sw[9]|out|pad|padres|vc|vcp|vdd|vddr|vip|vss|z
+ sg13_lv_nmos L=0.13u W=0.74u AS=0.2886p AD=0.14875p PS=2.26u PD=1.16u rfmode=0
M$206
+ BOTTOM|TOP|VGND|VSS|anode|cathode|core|h_sw[0]|h_sw[10]|h_sw[1]|h_sw[2]|h_sw[3]|h_sw[4]|h_sw[5]|h_sw[6]|h_sw[7]|h_sw[8]|h_sw[9]|l_sw[0]|l_sw[10]|l_sw[1]|l_sw[2]|l_sw[3]|l_sw[4]|l_sw[5]|l_sw[6]|l_sw[7]|l_sw[8]|l_sw[9]|out|pad|padres|vc|vcp|vdd|vddr|vip|vss|z
+ A|Y$1 \$69080
+ BOTTOM|TOP|VGND|VSS|anode|cathode|core|h_sw[0]|h_sw[10]|h_sw[1]|h_sw[2]|h_sw[3]|h_sw[4]|h_sw[5]|h_sw[6]|h_sw[7]|h_sw[8]|h_sw[9]|l_sw[0]|l_sw[10]|l_sw[1]|l_sw[2]|l_sw[3]|l_sw[4]|l_sw[5]|l_sw[6]|l_sw[7]|l_sw[8]|l_sw[9]|out|pad|padres|vc|vcp|vdd|vddr|vip|vss|z
+ sg13_lv_nmos L=0.13u W=0.55u AS=0.14875p AD=0.187p PS=1.16u PD=1.78u rfmode=0
M$207
+ BOTTOM|TOP|VGND|VSS|anode|cathode|core|h_sw[0]|h_sw[10]|h_sw[1]|h_sw[2]|h_sw[3]|h_sw[4]|h_sw[5]|h_sw[6]|h_sw[7]|h_sw[8]|h_sw[9]|l_sw[0]|l_sw[10]|l_sw[1]|l_sw[2]|l_sw[3]|l_sw[4]|l_sw[5]|l_sw[6]|l_sw[7]|l_sw[8]|l_sw[9]|out|pad|padres|vc|vcp|vdd|vddr|vip|vss|z
+ A|X$17 \$69081
+ BOTTOM|TOP|VGND|VSS|anode|cathode|core|h_sw[0]|h_sw[10]|h_sw[1]|h_sw[2]|h_sw[3]|h_sw[4]|h_sw[5]|h_sw[6]|h_sw[7]|h_sw[8]|h_sw[9]|l_sw[0]|l_sw[10]|l_sw[1]|l_sw[2]|l_sw[3]|l_sw[4]|l_sw[5]|l_sw[6]|l_sw[7]|l_sw[8]|l_sw[9]|out|pad|padres|vc|vcp|vdd|vddr|vip|vss|z
+ sg13_lv_nmos L=0.13u W=0.55u AS=0.14875p AD=0.187p PS=1.16u PD=1.78u rfmode=0
M$208
+ BOTTOM|TOP|VGND|VSS|anode|cathode|core|h_sw[0]|h_sw[10]|h_sw[1]|h_sw[2]|h_sw[3]|h_sw[4]|h_sw[5]|h_sw[6]|h_sw[7]|h_sw[8]|h_sw[9]|l_sw[0]|l_sw[10]|l_sw[1]|l_sw[2]|l_sw[3]|l_sw[4]|l_sw[5]|l_sw[6]|l_sw[7]|l_sw[8]|l_sw[9]|out|pad|padres|vc|vcp|vdd|vddr|vip|vss|z
+ \$69081 A|X$2
+ BOTTOM|TOP|VGND|VSS|anode|cathode|core|h_sw[0]|h_sw[10]|h_sw[1]|h_sw[2]|h_sw[3]|h_sw[4]|h_sw[5]|h_sw[6]|h_sw[7]|h_sw[8]|h_sw[9]|l_sw[0]|l_sw[10]|l_sw[1]|l_sw[2]|l_sw[3]|l_sw[4]|l_sw[5]|l_sw[6]|l_sw[7]|l_sw[8]|l_sw[9]|out|pad|padres|vc|vcp|vdd|vddr|vip|vss|z
+ sg13_lv_nmos L=0.13u W=0.74u AS=0.14875p AD=0.2886p PS=1.16u PD=2.26u rfmode=0
M$209
+ BOTTOM|TOP|VGND|VSS|anode|cathode|core|h_sw[0]|h_sw[10]|h_sw[1]|h_sw[2]|h_sw[3]|h_sw[4]|h_sw[5]|h_sw[6]|h_sw[7]|h_sw[8]|h_sw[9]|l_sw[0]|l_sw[10]|l_sw[1]|l_sw[2]|l_sw[3]|l_sw[4]|l_sw[5]|l_sw[6]|l_sw[7]|l_sw[8]|l_sw[9]|out|pad|padres|vc|vcp|vdd|vddr|vip|vss|z
+ A|X$18 \$69082
+ BOTTOM|TOP|VGND|VSS|anode|cathode|core|h_sw[0]|h_sw[10]|h_sw[1]|h_sw[2]|h_sw[3]|h_sw[4]|h_sw[5]|h_sw[6]|h_sw[7]|h_sw[8]|h_sw[9]|l_sw[0]|l_sw[10]|l_sw[1]|l_sw[2]|l_sw[3]|l_sw[4]|l_sw[5]|l_sw[6]|l_sw[7]|l_sw[8]|l_sw[9]|out|pad|padres|vc|vcp|vdd|vddr|vip|vss|z
+ sg13_lv_nmos L=0.13u W=0.55u AS=0.14875p AD=0.187p PS=1.16u PD=1.78u rfmode=0
M$210
+ BOTTOM|TOP|VGND|VSS|anode|cathode|core|h_sw[0]|h_sw[10]|h_sw[1]|h_sw[2]|h_sw[3]|h_sw[4]|h_sw[5]|h_sw[6]|h_sw[7]|h_sw[8]|h_sw[9]|l_sw[0]|l_sw[10]|l_sw[1]|l_sw[2]|l_sw[3]|l_sw[4]|l_sw[5]|l_sw[6]|l_sw[7]|l_sw[8]|l_sw[9]|out|pad|padres|vc|vcp|vdd|vddr|vip|vss|z
+ \$69082 X|in_l_sw[1]|nl_sw[1]|x
+ BOTTOM|TOP|VGND|VSS|anode|cathode|core|h_sw[0]|h_sw[10]|h_sw[1]|h_sw[2]|h_sw[3]|h_sw[4]|h_sw[5]|h_sw[6]|h_sw[7]|h_sw[8]|h_sw[9]|l_sw[0]|l_sw[10]|l_sw[1]|l_sw[2]|l_sw[3]|l_sw[4]|l_sw[5]|l_sw[6]|l_sw[7]|l_sw[8]|l_sw[9]|out|pad|padres|vc|vcp|vdd|vddr|vip|vss|z
+ sg13_lv_nmos L=0.13u W=0.74u AS=0.14875p AD=0.2886p PS=1.16u PD=2.26u rfmode=0
M$211
+ BOTTOM|TOP|VGND|VSS|anode|cathode|core|h_sw[0]|h_sw[10]|h_sw[1]|h_sw[2]|h_sw[3]|h_sw[4]|h_sw[5]|h_sw[6]|h_sw[7]|h_sw[8]|h_sw[9]|l_sw[0]|l_sw[10]|l_sw[1]|l_sw[2]|l_sw[3]|l_sw[4]|l_sw[5]|l_sw[6]|l_sw[7]|l_sw[8]|l_sw[9]|out|pad|padres|vc|vcp|vdd|vddr|vip|vss|z
+ A|X$4 \$69083
+ BOTTOM|TOP|VGND|VSS|anode|cathode|core|h_sw[0]|h_sw[10]|h_sw[1]|h_sw[2]|h_sw[3]|h_sw[4]|h_sw[5]|h_sw[6]|h_sw[7]|h_sw[8]|h_sw[9]|l_sw[0]|l_sw[10]|l_sw[1]|l_sw[2]|l_sw[3]|l_sw[4]|l_sw[5]|l_sw[6]|l_sw[7]|l_sw[8]|l_sw[9]|out|pad|padres|vc|vcp|vdd|vddr|vip|vss|z
+ sg13_lv_nmos L=0.13u W=0.55u AS=0.14875p AD=0.187p PS=1.16u PD=1.78u rfmode=0
M$212
+ BOTTOM|TOP|VGND|VSS|anode|cathode|core|h_sw[0]|h_sw[10]|h_sw[1]|h_sw[2]|h_sw[3]|h_sw[4]|h_sw[5]|h_sw[6]|h_sw[7]|h_sw[8]|h_sw[9]|l_sw[0]|l_sw[10]|l_sw[1]|l_sw[2]|l_sw[3]|l_sw[4]|l_sw[5]|l_sw[6]|l_sw[7]|l_sw[8]|l_sw[9]|out|pad|padres|vc|vcp|vdd|vddr|vip|vss|z
+ \$69083 X|in_l_sw[2]|nl_sw[2]|x
+ BOTTOM|TOP|VGND|VSS|anode|cathode|core|h_sw[0]|h_sw[10]|h_sw[1]|h_sw[2]|h_sw[3]|h_sw[4]|h_sw[5]|h_sw[6]|h_sw[7]|h_sw[8]|h_sw[9]|l_sw[0]|l_sw[10]|l_sw[1]|l_sw[2]|l_sw[3]|l_sw[4]|l_sw[5]|l_sw[6]|l_sw[7]|l_sw[8]|l_sw[9]|out|pad|padres|vc|vcp|vdd|vddr|vip|vss|z
+ sg13_lv_nmos L=0.13u W=0.74u AS=0.14875p AD=0.2886p PS=1.16u PD=2.26u rfmode=0
M$213 A|X$18 \$69084