*SPEF "ieee 1481-1999"
*DESIGN "sar12b"
*DATE "21:59:07 Friday July 10, 2026"
*VENDOR "The OpenROAD Project"
*PROGRAM "OpenROAD"
*VERSION "26Q1-1024-gdcf36133a"
*DESIGN_FLOW "NAME_SCOPE LOCAL" "PIN_CAP NONE"
*DIVIDER /
*DELIMITER :
*BUS_DELIMITER []
*T_UNIT 1 NS
*C_UNIT 1 PF
*R_UNIT 1 OHM
*L_UNIT 1 HENRY

*NAME_MAP
*3 ckc
*4 cko
*5 cks
*6 comp_p
*7 d_out[0]
*8 d_out[1]
*9 d_out[2]
*10 frame
*11 nh_sw[0]
*12 nh_sw[10]
*13 nh_sw[1]
*14 nh_sw[2]
*15 nh_sw[3]
*16 nh_sw[4]
*17 nh_sw[5]
*18 nh_sw[6]
*19 nh_sw[7]
*20 nh_sw[8]
*21 nh_sw[9]
*22 nl_sw[0]
*23 nl_sw[10]
*24 nl_sw[1]
*25 nl_sw[2]
*26 nl_sw[3]
*27 nl_sw[4]
*28 nl_sw[5]
*29 nl_sw[6]
*30 nl_sw[7]
*31 nl_sw[8]
*32 nl_sw[9]
*33 ph_sw[0]
*34 ph_sw[10]
*35 ph_sw[1]
*36 ph_sw[2]
*37 ph_sw[3]
*38 ph_sw[4]
*39 ph_sw[5]
*40 ph_sw[6]
*41 ph_sw[7]
*42 ph_sw[8]
*43 ph_sw[9]
*44 pl_sw[0]
*45 pl_sw[10]
*46 pl_sw[1]
*47 pl_sw[2]
*48 pl_sw[3]
*49 pl_sw[4]
*50 pl_sw[5]
*51 pl_sw[6]
*52 pl_sw[7]
*53 pl_sw[8]
*54 pl_sw[9]
*55 rdy
*56 _00_
*57 _01_
*58 _02_
*59 _03_
*60 _04_
*61 _05_
*62 _06_
*63 _07_
*64 _08_
*65 _09_
*66 _10_
*67 _11_
*68 _12_
*69 _13_
*70 _14_
*71 _15_
*72 _16_
*73 _17_
*74 _18_
*75 _19_
*76 _20_
*77 _21_
*78 _22_
*79 cf\[0\]
*80 cf\[10\]
*81 cf\[11\]
*82 cf\[1\]
*83 cf\[2\]
*84 cf\[3\]
*85 cf\[4\]
*86 cf\[5\]
*87 cf\[6\]
*88 cf\[7\]
*89 cf\[8\]
*90 cf\[9\]
*91 cksb
*92 dout\[0\]
*93 dout\[10\]
*94 dout\[11\]
*95 dout\[1\]
*96 dout\[2\]
*97 dout\[3\]
*98 dout\[4\]
*99 dout\[5\]
*100 dout\[6\]
*101 dout\[7\]
*102 dout\[8\]
*103 dout\[9\]
*104 fin
*105 net
*106 net1
*107 net10
*108 net11
*109 net12
*110 net13
*111 net14
*112 net15
*113 net16
*114 net17
*115 net18
*116 net19
*117 net2
*118 net20
*119 net21
*120 net22
*121 net23
*122 net24
*123 net25
*124 net26
*125 net27
*126 net28
*127 net29
*128 net3
*129 net30
*130 net31
*131 net32
*132 net33
*133 net34
*134 net35
*135 net36
*136 net37
*137 net38
*138 net39
*139 net4
*140 net40
*141 net41
*142 net42
*143 net43
*144 net44
*145 net45
*146 net46
*147 net47
*148 net48
*149 net49
*150 net5
*151 net50
*152 net51
*153 net52
*154 net53
*155 net54
*156 net55
*157 net56
*158 net57
*159 net6
*160 net7
*161 net8
*162 net9
*163 x1\.net1
*164 x1\.net2
*165 x1\.net3
*166 x1\.net4
*167 x1\.net5
*168 x1\.net6
*169 x1\.net7
*170 x3_0\.net1
*171 x3_0\.net2
*172 x3_0\.net3
*173 x3_0\.net4
*174 x3_0\.net5
*175 x3_0\.nh_sw
*176 x3_0\.nl_sw
*177 x3_0\.ph_sw
*178 x3_0\.pl_sw
*179 x3_1\.net1
*180 x3_1\.net2
*181 x3_1\.net3
*182 x3_1\.net4
*183 x3_1\.net5
*184 x3_1\.nh_sw
*185 x3_1\.nl_sw
*186 x3_1\.ph_sw
*187 x3_1\.pl_sw
*188 x3_10\.net1
*189 x3_10\.net2
*190 x3_10\.net3
*191 x3_10\.net4
*192 x3_10\.net5
*193 x3_10\.nh_sw
*194 x3_10\.nl_sw
*195 x3_10\.ph_sw
*196 x3_10\.pl_sw
*197 x3_2\.net1
*198 x3_2\.net2
*199 x3_2\.net3
*200 x3_2\.net4
*201 x3_2\.net5
*202 x3_2\.nh_sw
*203 x3_2\.nl_sw
*204 x3_2\.ph_sw
*205 x3_2\.pl_sw
*206 x3_3\.net1
*207 x3_3\.net2
*208 x3_3\.net3
*209 x3_3\.net4
*210 x3_3\.net5
*211 x3_3\.nh_sw
*212 x3_3\.nl_sw
*213 x3_3\.ph_sw
*214 x3_3\.pl_sw
*215 x3_4\.net1
*216 x3_4\.net2
*217 x3_4\.net3
*218 x3_4\.net4
*219 x3_4\.net5
*220 x3_4\.nh_sw
*221 x3_4\.nl_sw
*222 x3_4\.ph_sw
*223 x3_4\.pl_sw
*224 x3_5\.net1
*225 x3_5\.net2
*226 x3_5\.net3
*227 x3_5\.net4
*228 x3_5\.net5
*229 x3_5\.nh_sw
*230 x3_5\.nl_sw
*231 x3_5\.ph_sw
*232 x3_5\.pl_sw
*233 x3_6\.net1
*234 x3_6\.net2
*235 x3_6\.net3
*236 x3_6\.net4
*237 x3_6\.net5
*238 x3_6\.nh_sw
*239 x3_6\.nl_sw
*240 x3_6\.ph_sw
*241 x3_6\.pl_sw
*242 x3_7\.net1
*243 x3_7\.net2
*244 x3_7\.net3
*245 x3_7\.net4
*246 x3_7\.net5
*247 x3_7\.nh_sw
*248 x3_7\.nl_sw
*249 x3_7\.ph_sw
*250 x3_7\.pl_sw
*251 x3_8\.net1
*252 x3_8\.net2
*253 x3_8\.net3
*254 x3_8\.net4
*255 x3_8\.net5
*256 x3_8\.nh_sw
*257 x3_8\.nl_sw
*258 x3_8\.ph_sw
*259 x3_8\.pl_sw
*260 x3_9\.net1
*261 x3_9\.net2
*262 x3_9\.net3
*263 x3_9\.net4
*264 x3_9\.net5
*265 x3_9\.nh_sw
*266 x3_9\.nl_sw
*267 x3_9\.ph_sw
*268 x3_9\.pl_sw
*269 x5\.cksb
*270 x6\.cko_int
*271 x6\.cksb
*272 x6\.cnt0
*273 x6\.cnt0_next
*274 x6\.cnt1
*275 x6\.cnt1_next
*276 x6\.d0_next
*277 x6\.d1_next
*278 x6\.d2_next
*279 x6\.ep0
*280 x6\.ep0_next
*281 x6\.ep1
*282 x6\.ep1_next
*283 x6\.rdy_n
*284 FILLER_0_107
*285 FILLER_0_12
*286 FILLER_0_14
*287 FILLER_0_154
*288 FILLER_0_172
*289 FILLER_0_211
*290 FILLER_0_27
*291 FILLER_0_32
*292 FILLER_0_54
*293 FILLER_0_85
*294 FILLER_10_0
*295 FILLER_10_114
*296 FILLER_10_14
*297 FILLER_10_164
*298 FILLER_10_181
*299 FILLER_10_186
*300 FILLER_10_195
*301 FILLER_10_27
*302 FILLER_1_0
*303 FILLER_1_111
*304 FILLER_1_18
*305 FILLER_1_207
*306 FILLER_1_95
*307 FILLER_2_0
*308 FILLER_2_130
*309 FILLER_2_175
*310 FILLER_2_206
*311 FILLER_2_64
*312 FILLER_2_83
*313 FILLER_2_91
*314 FILLER_3_0
*315 FILLER_3_14
*316 FILLER_3_200
*317 FILLER_3_44
*318 FILLER_3_52
*319 FILLER_3_82
*320 FILLER_3_92
*321 FILLER_4_11
*322 FILLER_4_126
*323 FILLER_4_128
*324 FILLER_4_141
*325 FILLER_4_148
*326 FILLER_4_187
*327 FILLER_4_209
*328 FILLER_4_211
*329 FILLER_5_100
*330 FILLER_5_127
*331 FILLER_5_129
*332 FILLER_5_143
*333 FILLER_5_166
*334 FILLER_5_173
*335 FILLER_5_180
*336 FILLER_5_209
*337 FILLER_5_211
*338 FILLER_5_33
*339 FILLER_5_41
*340 FILLER_5_45
*341 FILLER_5_75
*342 FILLER_6_0
*343 FILLER_6_107
*344 FILLER_6_114
*345 FILLER_6_118
*346 FILLER_6_152
*347 FILLER_6_209
*348 FILLER_6_211
*349 FILLER_6_47
*350 FILLER_6_51
*351 FILLER_6_7
*352 FILLER_6_9
*353 FILLER_7_116
*354 FILLER_7_189
*355 FILLER_7_198
*356 FILLER_7_203
*357 FILLER_7_207
*358 FILLER_7_32
*359 FILLER_7_51
*360 FILLER_7_58
*361 FILLER_7_65
*362 FILLER_7_72
*363 FILLER_7_74
*364 FILLER_7_93
*365 FILLER_8_0
*366 FILLER_8_11
*367 FILLER_8_13
*368 FILLER_8_147
*369 FILLER_8_203
*370 FILLER_8_5
*371 FILLER_8_50
*372 FILLER_8_57
*373 FILLER_8_7
*374 FILLER_9_113
*375 FILLER_9_143
*376 FILLER_9_54
*377 _24_
*378 _25_
*379 _26_
*380 _27_
*381 _28_
*382 _29_
*383 _30_
*384 _31_
*385 _32_
*386 _33_
*387 _34_
*388 _35_
*389 _36_
*390 _37_
*391 _38_
*392 _39_
*393 _40_
*394 _41_
*395 _42_
*396 _43_
*397 _44_
*398 _45_
*399 _46_
*400 _47_
*401 _48_
*402 _49_
*403 _50_
*404 _51_
*405 _52_
*406 _53_
*407 _54_
*408 _56_
*409 _57_
*410 _58_
*411 _59_
*412 _60_
*413 _61_
*414 _62_
*415 _63_
*416 _64_
*417 _65_
*418 _66_
*419 _67_
*420 _68_
*421 _69_
*422 _70_
*423 _71_
*424 _72_
*425 _73_
*426 _74_
*427 _75_
*428 _76_
*429 _77_
*430 _78_
*431 _79_
*432 _80_
*433 _81_
*434 _82_
*435 _83_
*436 _84_
*437 _85_
*438 _86_
*439 _87_
*440 _88_
*441 _89_
*442 _90_
*443 _91_
*444 _92_
*445 _93_
*446 _94_
*447 _95_
*448 _96_
*449 _97_
*450 _98_
*451 _99_
*452 fanout53
*453 fanout54
*454 fanout55
*455 fanout56
*456 input1
*457 input2
*458 output10
*459 output11
*460 output12
*461 output13
*462 output14
*463 output15
*464 output16
*465 output17
*466 output18
*467 output19
*468 output20
*469 output21
*470 output22
*471 output23
*472 output24
*473 output25
*474 output26
*475 output27
*476 output28
*477 output29
*478 output3
*479 output30
*480 output31
*481 output32
*482 output33
*483 output34
*484 output35
*485 output36
*486 output37
*487 output38
*488 output39
*489 output4
*490 output40
*491 output41
*492 output42
*493 output43
*494 output44
*495 output45
*496 output46
*497 output47
*498 output48
*499 output49
*500 output5
*501 output50
*502 output51
*503 output52
*504 output6
*505 output7
*506 output8
*507 output9
*508 x1\.x1
*509 x1\.x12
*510 x1\.x2
*511 x1\.x3
*512 x1\.x4
*513 x1\.x5
*514 x1\.x6
*515 x1\.x7
*516 x3
*517 x3_0\.x1
*518 x3_0\.x2
*519 x3_0\.x3
*520 x3_0\.x4
*521 x3_0\.x5
*522 x3_0\.x8
*523 x3_0\.x9
*524 x3_1\.x1
*525 x3_1\.x2
*526 x3_1\.x3
*527 x3_1\.x4
*528 x3_1\.x5
*529 x3_1\.x8
*530 x3_1\.x9
*531 x3_10\.x1
*532 x3_10\.x2
*533 x3_10\.x3
*534 x3_10\.x4
*535 x3_10\.x5
*536 x3_10\.x8
*537 x3_10\.x9
*538 x3_2\.x1
*539 x3_2\.x2
*540 x3_2\.x3
*541 x3_2\.x4
*542 x3_2\.x5
*543 x3_2\.x8
*544 x3_2\.x9
*545 x3_3\.x1
*546 x3_3\.x2
*547 x3_3\.x3
*548 x3_3\.x4
*549 x3_3\.x5
*550 x3_3\.x8
*551 x3_3\.x9
*552 x3_4\.x1
*553 x3_4\.x2
*554 x3_4\.x3
*555 x3_4\.x4
*556 x3_4\.x5
*557 x3_4\.x8
*558 x3_4\.x9
*559 x3_5\.x1
*560 x3_5\.x2
*561 x3_5\.x3
*562 x3_5\.x4
*563 x3_5\.x5
*564 x3_5\.x8
*565 x3_5\.x9
*566 x3_6\.x1
*567 x3_6\.x2
*568 x3_6\.x3
*569 x3_6\.x4
*570 x3_6\.x5
*571 x3_6\.x8
*572 x3_6\.x9
*573 x3_7\.x1
*574 x3_7\.x2
*575 x3_7\.x3
*576 x3_7\.x4
*577 x3_7\.x5
*578 x3_7\.x8
*579 x3_7\.x9
*580 x3_8\.x1
*581 x3_8\.x2
*582 x3_8\.x3
*583 x3_8\.x4
*584 x3_8\.x5
*585 x3_8\.x8
*586 x3_8\.x9
*587 x3_9\.x1
*588 x3_9\.x2
*589 x3_9\.x3
*590 x3_9\.x4
*591 x3_9\.x5
*592 x3_9\.x8
*593 x3_9\.x9
*594 x4
*595 x5\.x1
*596 x5\.x10
*597 x5\.x11
*598 x5\.x12
*599 x5\.x13
*600 x5\.x14
*601 x5\.x1_57
*602 x5\.x2
*603 x5\.x3
*604 x5\.x4
*605 x5\.x5
*606 x5\.x6
*607 x5\.x7
*608 x5\.x8
*609 x5\.x9
*610 x6\.buf_cko
*611 x6\.buf_frm
*612 x6\.c0
*613 x6\.c1
*614 x6\.e0
*615 x6\.e1
*616 x6\.inv_rdy
*617 x6\.o0
*618 x6\.o1
*619 x6\.o2
*620 x6\.xi

*PORTS
ckc O
cko O
cks I
comp_p I
d_out[0] O
d_out[1] O
d_out[2] O
frame O
nh_sw[0] O
nh_sw[10] O
nh_sw[1] O
nh_sw[2] O
nh_sw[3] O
nh_sw[4] O
nh_sw[5] O
nh_sw[6] O
nh_sw[7] O
nh_sw[8] O
nh_sw[9] O
nl_sw[0] O
nl_sw[10] O
nl_sw[1] O
nl_sw[2] O
nl_sw[3] O
nl_sw[4] O
nl_sw[5] O
nl_sw[6] O
nl_sw[7] O
nl_sw[8] O
nl_sw[9] O
ph_sw[0] O
ph_sw[10] O
ph_sw[1] O
ph_sw[2] O
ph_sw[3] O
ph_sw[4] O
ph_sw[5] O
ph_sw[6] O
ph_sw[7] O
ph_sw[8] O
ph_sw[9] O
pl_sw[0] O
pl_sw[10] O
pl_sw[1] O
pl_sw[2] O
pl_sw[3] O
pl_sw[4] O
pl_sw[5] O
pl_sw[6] O
pl_sw[7] O
pl_sw[8] O
pl_sw[9] O
rdy I

*D_NET *3 0.000584513
*CONN
*P ckc O
*I *478:X O *D sg13cmos5l_buf_1
*CAP
1 ckc 0.000204161
2 *478:X 0.000204161
3 ckc *478:A 0.000176191
4 ckc *163:12 0
*RES
1 *478:X ckc 42.369 
*END

*D_NET *4 0.00027763
*CONN
*P cko O
*I *489:X O *D sg13cmos5l_buf_1
*CAP
1 cko 0.000138815
2 *489:X 0.000138815
3 cko *144:10 0
*RES
1 *489:X cko 41.7098 
*END

*D_NET *5 0.0210324
*CONN
*P cks I
*I *600:A I *D sg13cmos5l_inv_1
*I *611:A I *D sg13cmos5l_buf_8
*I *620:A I *D sg13cmos5l_inv_1
*I *594:A I *D sg13cmos5l_inv_8
*I *511:A I *D sg13cmos5l_inv_1
*CAP
1 cks 0.000160799
2 *600:A 2.47436e-05
3 *611:A 0.000860285
4 *620:A 0
5 *594:A 3.34444e-05
6 *511:A 0.000577152
7 *5:43 0.00149178
8 *5:39 0.00518206
9 *5:28 0.00369314
10 *5:24 0.00123092
11 *5:7 0.00111443
12 *511:A *522:RESET_B 0.000566463
13 *511:A *522:D 0
14 *511:A *157:29 0
15 *511:A *175:12 0
16 *594:A *427:A 4.77425e-05
17 *600:A *492:A 3.24568e-05
18 *600:A *177:18 0
19 *611:A frame 0
20 *611:A ph_sw[9] 0
21 *611:A pl_sw[10] 0
22 *611:A *503:A 0.000208917
23 *611:A *587:GATE 0
24 *611:A *54:8 0
25 *611:A *90:47 0
26 *611:A *141:12 0
27 *611:A *142:10 0.000128247
28 *611:A *152:8 0
29 *611:A *156:46 7.51285e-05
30 *611:A *261:10 0
31 *611:A *262:12 0.000234727
32 *5:24 *418:A 0
33 *5:24 *492:A 0.000274769
34 *5:24 *518:A 0
35 *5:24 *522:RESET_B 4.7803e-05
36 *5:24 *522:D 0
37 *5:24 *177:18 0
38 *5:28 *523:RESET_B 0
39 *5:28 *79:8 0
40 *5:28 *91:328 0
41 *5:28 *155:12 0.00108808
42 *5:28 *269:8 0.000767166
43 *5:28 *269:21 0.000319384
44 *5:39 *422:A 0
45 *5:39 *573:GATE 0
46 *5:39 *607:CLK 0.00053198
47 *5:39 *88:12 0
48 *5:39 *90:12 0
49 *5:39 *91:191 0
50 *5:39 *155:12 0.000554492
51 *5:39 *156:36 0
52 *5:39 *156:46 0.000608025
53 *5:39 *223:8 0
54 *5:39 *235:10 0.000554993
55 *5:39 *240:8 0
56 *5:39 *269:95 0
57 *5:39 *269:106 0
58 *5:39 *269:121 0
59 *5:39 *269:131 0
60 *5:43 *421:A 0
61 *5:43 *443:A 0
62 *5:43 *466:A 4.77246e-05
63 *5:43 *598:RESET_B 0
64 *5:43 *619:D 0
65 *5:43 *156:46 0.000575507
66 *5:43 *156:48 0
67 *5:43 *156:58 0
68 *5:43 *256:12 0
*RES
1 cks *5:7 21.9261 
2 *5:7 *511:A 26.3963 
3 *5:7 *5:24 4.4496 
4 *5:24 *5:28 30.9798 
5 *5:28 *594:A 40.3193 
6 *5:28 *5:39 30.0142 
7 *5:39 *5:43 33.7299 
8 *5:43 *620:A 20 
9 *5:39 *611:A 49.2803 
10 *5:24 *600:A 20.3193 
*END

*D_NET *6 0.000653801
*CONN
*P comp_p I
*I *456:A I *D sg13cmos5l_buf_1
*CAP
1 comp_p 0.000222374
2 *456:A 0.000222374
3 *456:A nl_sw[0] 0.000209054
*RES
1 comp_p *456:A 42.5853 
*END

*D_NET *7 0.00136654
*CONN
*P d_out[0] O
*I *500:X O *D sg13cmos5l_buf_1
*CAP
1 d_out[0] 0.000376286
2 *500:X 0.000376286
3 d_out[0] nh_sw[10] 0.000469028
4 d_out[0] nl_sw[10] 0
5 d_out[0] *441:A 0
6 d_out[0] *458:A 0.000144942
*RES
1 *500:X d_out[0] 44.5217 
*END

*D_NET *8 0.000782543
*CONN
*P d_out[1] O
*I *504:X O *D sg13cmos5l_buf_1
*CAP
1 d_out[1] 0.000319826
2 *504:X 0.000319826
3 d_out[1] *505:A 0.000142892
*RES
1 *504:X d_out[1] 43.7801 
*END

*D_NET *9 0.00127848
*CONN
*P d_out[2] O
*I *505:X O *D sg13cmos5l_buf_1
*CAP
1 d_out[2] 0.000486475
2 *505:X 0.000486475
3 d_out[2] *489:A 0.000305532
*RES
1 *505:X d_out[2] 45.6032 
*END

*D_NET *10 0.00177529
*CONN
*P frame O
*I *506:X O *D sg13cmos5l_buf_1
*CAP
1 frame 0.000692111
2 *506:X 0.000692111
3 frame ph_sw[10] 0
4 frame pl_sw[10] 0
5 frame *419:A 0
6 frame *481:A 0.000101625
7 frame *506:A 0
8 frame *45:10 0.000209736
9 frame *132:10 7.9703e-05
10 frame *193:33 0
11 *611:A frame 0
*RES
1 *506:X frame 47.3439 
*END

*D_NET *11 0.0012706
*CONN
*P nh_sw[0] O
*I *507:X O *D sg13cmos5l_buf_1
*CAP
1 nh_sw[0] 0.000562868
2 *507:X 0.000562868
3 nh_sw[0] nl_sw[0] 0
4 nh_sw[0] nl_sw[1] 0
5 nh_sw[0] *470:A 0
6 nh_sw[0] *471:A 0
7 nh_sw[0] *507:A 0.000144866
8 nh_sw[0] *175:12 0
*RES
1 *507:X nh_sw[0] 26.6744 
*END

*D_NET *12 0.0020225
*CONN
*P nh_sw[10] O
*I *458:X O *D sg13cmos5l_buf_1
*CAP
1 nh_sw[10] 0.000776737
2 *458:X 0.000776737
3 nh_sw[10] nl_sw[10] 0
4 nh_sw[10] *458:A 0
5 d_out[0] nh_sw[10] 0.000469028
*RES
1 *458:X nh_sw[10] 28.9713 
*END

*D_NET *13 0.00149748
*CONN
*P nh_sw[1] O
*I *459:X O *D sg13cmos5l_buf_1
*CAP
1 nh_sw[1] 0.000678443
2 *459:X 0.000678443
3 nh_sw[1] nl_sw[1] 0
4 nh_sw[1] nl_sw[2] 0
5 nh_sw[1] *439:A 0
6 nh_sw[1] *450:A 0
7 nh_sw[1] *459:A 0.000140596
8 nh_sw[1] *14:10 0
*RES
1 *459:X nh_sw[1] 27.8074 
*END

*D_NET *14 0.00163619
*CONN
*P nh_sw[2] O
*I *460:X O *D sg13cmos5l_buf_1
*CAP
1 nh_sw[2] 0.000157866
2 *460:X 0.000489005
3 *14:10 0.000646871
4 nh_sw[2] nl_sw[2] 0
5 nh_sw[2] nl_sw[3] 0
6 nh_sw[2] *15:10 0
7 *14:10 nl_sw[2] 0
8 *14:10 *25:8 0
9 *14:10 *26:10 0.000342449
10 nh_sw[1] *14:10 0
*RES
1 *460:X *14:10 46.0461 
2 *14:10 nh_sw[2] 21.8952 
*END

*D_NET *15 0.00132738
*CONN
*P nh_sw[3] O
*I *461:X O *D sg13cmos5l_buf_1
*CAP
1 nh_sw[3] 8.57575e-05
2 *461:X 0.000577932
3 *15:10 0.000663689
4 nh_sw[3] nl_sw[3] 0
5 nh_sw[3] nl_sw[4] 0
6 *15:10 nl_sw[3] 0
7 *15:10 *26:10 0
8 *15:10 *123:10 0
9 nh_sw[2] *15:10 0
*RES
1 *461:X *15:10 46.6641 
2 *15:10 nh_sw[3] 21.03 
*END

*D_NET *16 0.00127017
*CONN
*P nh_sw[4] O
*I *462:X O *D sg13cmos5l_buf_1
*CAP
1 nh_sw[4] 0.000578842
2 *462:X 0.000578842
3 nh_sw[4] nl_sw[4] 0
4 nh_sw[4] nl_sw[5] 0
5 nh_sw[4] *435:A 0.000112486
6 nh_sw[4] *462:A 0
7 nh_sw[4] *473:A 0
8 nh_sw[4] *220:16 0
*RES
1 *462:X nh_sw[4] 26.6744 
*END

*D_NET *17 0.00194915
*CONN
*P nh_sw[5] O
*I *463:X O *D sg13cmos5l_buf_1
*CAP
1 nh_sw[5] 0.000837267
2 *463:X 0.000837267
3 nh_sw[5] nl_sw[5] 0
4 nh_sw[5] nl_sw[6] 0
5 nh_sw[5] *387:A1 0
6 nh_sw[5] *434:A 0
7 nh_sw[5] *463:A 0
8 nh_sw[5] *614:D 0
9 nh_sw[5] *617:RESET_B 0
10 nh_sw[5] *60:16 0.000274617
11 nh_sw[5] *63:32 0
12 nh_sw[5] *126:12 0
*RES
1 *463:X nh_sw[5] 29.3215 
*END

*D_NET *18 0.00156101
*CONN
*P nh_sw[6] O
*I *464:X O *D sg13cmos5l_buf_1
*CAP
1 nh_sw[6] 0.000419296
2 *464:X 0.000361212
3 *18:8 0.000780507
4 nh_sw[6] nl_sw[6] 0
5 nh_sw[6] nl_sw[7] 0
6 *18:8 *127:8 0
7 *18:8 *159:10 0
8 *18:8 *239:8 0
*RES
1 *464:X *18:8 44.5526 
2 *18:8 nh_sw[6] 24.9749 
*END

*D_NET *19 0.00316287
*CONN
*P nh_sw[7] O
*I *465:X O *D sg13cmos5l_buf_1
*CAP
1 nh_sw[7] 0.000865057
2 *465:X 8.27727e-05
3 *19:8 0.00094783
4 nh_sw[7] nl_sw[7] 0
5 nh_sw[7] nl_sw[8] 0
6 nh_sw[7] *382:B 0.000209511
7 nh_sw[7] *432:A 0.000274485
8 nh_sw[7] *61:16 0.000436385
9 nh_sw[7] *115:18 0
10 nh_sw[7] *283:12 0.000112519
11 *19:8 *401:A 0.00012816
12 *19:8 *160:25 0.000106151
13 *19:8 *283:12 0
*RES
1 *465:X *19:8 41.0918 
2 *19:8 nh_sw[7] 30.7223 
*END

*D_NET *20 0.00194361
*CONN
*P nh_sw[8] O
*I *466:X O *D sg13cmos5l_buf_1
*CAP
1 nh_sw[8] 0.000753676
2 *466:X 0.000753676
3 nh_sw[8] nl_sw[8] 0
4 nh_sw[8] nl_sw[9] 0
5 nh_sw[8] *443:A 0
6 nh_sw[8] *466:A 0.000436254
7 nh_sw[8] *612:RESET_B 0
8 nh_sw[8] *30:10 0
*RES
1 *466:X nh_sw[8] 28.4363 
*END

*D_NET *21 0.00165658
*CONN
*P nh_sw[9] O
*I *467:X O *D sg13cmos5l_buf_1
*CAP
1 nh_sw[9] 0.000828288
2 *467:X 0.000828288
3 nh_sw[9] nl_sw[10] 0
4 nh_sw[9] nl_sw[9] 0
5 nh_sw[9] *467:A 0
6 nh_sw[9] *32:10 0
7 nh_sw[9] *272:12 0
*RES
1 *467:X nh_sw[9] 29.1876 
*END

*D_NET *22 0.00144099
*CONN
*P nl_sw[0] O
*I *468:X O *D sg13cmos5l_buf_1
*CAP
1 nl_sw[0] 0.000543498
2 *468:X 0.000543498
3 nl_sw[0] *440:A 0
4 nl_sw[0] *117:12 0.000144942
5 nh_sw[0] nl_sw[0] 0
6 *456:A nl_sw[0] 0.000209054
*RES
1 *468:X nl_sw[0] 26.6744 
*END

*D_NET *23 0.00133926
*CONN
*P nl_sw[10] O
*I *469:X O *D sg13cmos5l_buf_1
*CAP
1 nl_sw[10] 0.000669632
2 *469:X 0.000669632
3 nl_sw[10] *441:A 0
4 nl_sw[10] *469:A 0
5 nl_sw[10] *272:12 0
6 d_out[0] nl_sw[10] 0
7 nh_sw[10] nl_sw[10] 0
8 nh_sw[9] nl_sw[10] 0
*RES
1 *469:X nl_sw[10] 27.2718 
*END

*D_NET *24 0.000884134
*CONN
*P nl_sw[1] O
*I *470:X O *D sg13cmos5l_buf_1
*CAP
1 nl_sw[1] 0.000442067
2 *470:X 0.000442067
3 nh_sw[0] nl_sw[1] 0
4 nh_sw[1] nl_sw[1] 0
*RES
1 *470:X nl_sw[1] 25.6547 
*END

*D_NET *25 0.0017993
*CONN
*P nl_sw[2] O
*I *471:X O *D sg13cmos5l_buf_1
*CAP
1 nl_sw[2] 0.000384007
2 *471:X 0.000515644
3 *25:8 0.000899652
4 nl_sw[2] *26:10 0
5 *25:8 *122:10 0
6 nh_sw[1] nl_sw[2] 0
7 nh_sw[2] nl_sw[2] 0
8 *14:10 nl_sw[2] 0
9 *14:10 *25:8 0
*RES
1 *471:X *25:8 44.7998 
2 *25:8 nl_sw[2] 22.3385 
*END

*D_NET *26 0.00172393
*CONN
*P nl_sw[3] O
*I *472:X O *D sg13cmos5l_buf_1
*CAP
1 nl_sw[3] 0.000186785
2 *472:X 0.000503954
3 *26:10 0.000690739
4 nh_sw[2] nl_sw[3] 0
5 nh_sw[3] nl_sw[3] 0
6 nl_sw[2] *26:10 0
7 *14:10 *26:10 0.000342449
8 *15:10 nl_sw[3] 0
9 *15:10 *26:10 0
*RES
1 *472:X *26:10 46.3242 
2 *26:10 nl_sw[3] 22.1115 
*END

*D_NET *27 0.00157471
*CONN
*P nl_sw[4] O
*I *473:X O *D sg13cmos5l_buf_1
*CAP
1 nl_sw[4] 0.000674763
2 *473:X 0.000674763
3 nl_sw[4] *545:RESET_B 0
4 nl_sw[4] *547:A 0
5 nl_sw[4] *97:12 0
6 nl_sw[4] *220:16 1.54008e-05
7 nl_sw[4] *221:14 0.000209779
8 nh_sw[3] nl_sw[4] 0
9 nh_sw[4] nl_sw[4] 0
*RES
1 *473:X nl_sw[4] 28.2812 
*END

*D_NET *28 0.00207949
*CONN
*P nl_sw[5] O
*I *474:X O *D sg13cmos5l_buf_1
*CAP
1 nl_sw[5] 0.000875994
2 *474:X 0.000875994
3 nl_sw[5] *387:A1 0
4 nl_sw[5] *387:B1 7.00878e-05
5 nl_sw[5] *389:B1 0
6 nl_sw[5] *389:B2 0
7 nl_sw[5] *389:A2 0.000145031
8 nl_sw[5] *393:A 0
9 nl_sw[5] *462:A 0
10 nl_sw[5] *474:A 0.000112388
11 nl_sw[5] *276:10 0
12 nh_sw[4] nl_sw[5] 0
13 nh_sw[5] nl_sw[5] 0
*RES
1 *474:X nl_sw[5] 29.2925 
*END

*D_NET *29 0.00154818
*CONN
*P nl_sw[6] O
*I *475:X O *D sg13cmos5l_buf_1
*CAP
1 nl_sw[6] 0.00077409
2 *475:X 0.00077409
3 nl_sw[6] *475:A 0
4 nl_sw[6] *617:RESET_B 0
5 nl_sw[6] *617:CLK 0
6 nl_sw[6] *114:12 0
7 nl_sw[6] *271:16 0
8 nl_sw[6] *283:63 0
9 nh_sw[5] nl_sw[6] 0
10 nh_sw[6] nl_sw[6] 0
*RES
1 *475:X nl_sw[6] 28.1987 
*END

*D_NET *30 0.00181582
*CONN
*P nl_sw[7] O
*I *476:X O *D sg13cmos5l_buf_1
*CAP
1 nl_sw[7] 0.000137283
2 *476:X 0.000770626
3 *30:10 0.000907909
4 *30:10 nl_sw[8] 0
5 nh_sw[6] nl_sw[7] 0
6 nh_sw[7] nl_sw[7] 0
7 nh_sw[8] *30:10 0
*RES
1 *476:X *30:10 48.7344 
2 *30:10 nl_sw[7] 21.6789 
*END

*D_NET *31 0.00221274
*CONN
*P nl_sw[8] O
*I *477:X O *D sg13cmos5l_buf_1
*CAP
1 nl_sw[8] 0.000888242
2 *477:X 0.000888242
3 nl_sw[8] *382:A_N 0
4 nl_sw[8] *432:A 0
5 nl_sw[8] *443:A 0
6 nl_sw[8] *476:A 0
7 nl_sw[8] *477:A 0.000436254
8 nl_sw[8] *613:CLK 0
9 nh_sw[7] nl_sw[8] 0
10 nh_sw[8] nl_sw[8] 0
11 *30:10 nl_sw[8] 0
*RES
1 *477:X nl_sw[8] 29.8262 
*END

*D_NET *32 0.00184906
*CONN
*P nl_sw[9] O
*I *479:X O *D sg13cmos5l_buf_1
*CAP
1 nl_sw[9] 0.000317086
2 *479:X 0.000607442
3 *32:10 0.000924529
4 *32:10 *430:A 0
5 *32:10 *612:CLK 0
6 *32:10 *194:12 0
7 *32:10 *273:28 0
8 nh_sw[8] nl_sw[9] 0
9 nh_sw[9] nl_sw[9] 0
10 nh_sw[9] *32:10 0
*RES
1 *479:X *32:10 46.2933 
2 *32:10 nl_sw[9] 23.8419 
*END

*D_NET *33 0.0011371
*CONN
*P ph_sw[0] O
*I *480:X O *D sg13cmos5l_buf_1
*CAP
1 ph_sw[0] 0.000368726
2 *480:X 0.000199824
3 *33:10 0.000568551
4 ph_sw[0] pl_sw[0] 0
5 ph_sw[0] pl_sw[1] 0
6 ph_sw[0] *46:10 0
7 *33:10 *131:8 0
*RES
1 *480:X *33:10 41.9055 
2 *33:10 ph_sw[0] 24.1612 
*END

*D_NET *34 0.00223758
*CONN
*P ph_sw[10] O
*I *481:X O *D sg13cmos5l_buf_1
*CAP
1 ph_sw[10] 0.00111106
2 *481:X 0.00111106
3 ph_sw[10] pl_sw[10] 0
4 ph_sw[10] *481:A 0
5 ph_sw[10] *489:A 0
6 ph_sw[10] *193:33 1.54556e-05
7 frame ph_sw[10] 0
*RES
1 *481:X ph_sw[10] 31.8862 
*END

*D_NET *35 0.00160783
*CONN
*P ph_sw[1] O
*I *482:X O *D sg13cmos5l_buf_1
*CAP
1 ph_sw[1] 0.000381566
2 *482:X 0.000422349
3 *35:8 0.000803916
4 ph_sw[1] pl_sw[1] 0
5 ph_sw[1] pl_sw[2] 0
6 ph_sw[1] *47:12 0
7 *35:8 *46:10 0
8 *35:8 *47:12 0
9 *35:8 *133:10 0
10 *35:8 *145:10 0
11 *35:8 *187:10 0
*RES
1 *482:X *35:8 43.3166 
2 *35:8 ph_sw[1] 24.3775 
*END

*D_NET *36 0.00164518
*CONN
*P ph_sw[2] O
*I *483:X O *D sg13cmos5l_buf_1
*CAP
1 ph_sw[2] 0.000375368
2 *483:X 0.000195574
3 *36:8 0.000570942
4 ph_sw[2] pl_sw[2] 0
5 ph_sw[2] pl_sw[3] 0
6 ph_sw[2] *37:10 0
7 *36:8 *47:12 0
8 *36:8 *128:25 0
9 *36:8 *134:8 0.000503291
*RES
1 *483:X *36:8 42.8222 
2 *36:8 ph_sw[2] 24.3775 
*END

*D_NET *37 0.00144213
*CONN
*P ph_sw[3] O
*I *484:X O *D sg13cmos5l_buf_1
*CAP
1 ph_sw[3] 0.000213773
2 *484:X 0.000507294
3 *37:10 0.000721067
4 ph_sw[3] pl_sw[3] 0
5 ph_sw[3] pl_sw[4] 0
6 *37:10 pl_sw[3] 0
7 *37:10 *38:10 0
8 *37:10 *49:10 0
9 *37:10 *135:8 0
10 ph_sw[2] *37:10 0
*RES
1 *484:X *37:10 45.8916 
2 *37:10 ph_sw[3] 22.6471 
*END

*D_NET *38 0.00313272
*CONN
*P ph_sw[4] O
*I *485:X O *D sg13cmos5l_buf_1
*CAP
1 ph_sw[4] 0.000309321
2 *485:X 0.000432329
3 *38:10 0.00074165
4 ph_sw[4] pl_sw[4] 0
5 ph_sw[4] pl_sw[5] 0
6 *38:10 pl_sw[3] 0
7 *38:10 *49:10 0.000773829
8 *38:10 *50:10 0.000875588
9 *38:10 *149:8 0
10 *38:10 *156:10 0
11 *37:10 *38:10 0
*RES
1 *485:X *38:10 46.7877 
2 *38:10 ph_sw[4] 23.7286 
*END

*D_NET *39 0.00324398
*CONN
*P ph_sw[5] O
*I *486:X O *D sg13cmos5l_buf_1
*CAP
1 ph_sw[5] 0.000497021
2 *486:X 0.000352767
3 *39:10 0.000849788
4 ph_sw[5] pl_sw[5] 0
5 ph_sw[5] pl_sw[6] 0
6 ph_sw[5] *412:A 0
7 ph_sw[5] *235:10 0.000209945
8 *39:10 *51:10 0.000398379
9 *39:10 *137:10 0
10 *39:10 *156:21 0.000936076
*RES
1 *486:X *39:10 44.841 
2 *39:10 ph_sw[5] 25.8916 
*END

*D_NET *40 0.00237327
*CONN
*P ph_sw[6] O
*I *487:X O *D sg13cmos5l_buf_1
*CAP
1 ph_sw[6] 0.000425733
2 *487:X 0.000696321
3 *40:8 0.00112205
4 ph_sw[6] pl_sw[6] 0
5 ph_sw[6] pl_sw[7] 0
6 *40:8 *41:10 0
7 *40:8 *52:10 0
8 *40:8 *138:10 0
9 *40:8 *140:8 0.000129163
*RES
1 *487:X *40:8 46.5302 
2 *40:8 ph_sw[6] 25.1809 
*END

*D_NET *41 0.00220332
*CONN
*P ph_sw[7] O
*I *488:X O *D sg13cmos5l_buf_1
*CAP
1 ph_sw[7] 0.000341966
2 *488:X 0.000668633
3 *41:10 0.0010106
4 ph_sw[7] pl_sw[7] 0
5 ph_sw[7] pl_sw[8] 0
6 *41:10 *42:10 0.000182121
7 *41:10 *52:10 0
8 *41:10 *53:8 0
9 *41:10 *140:8 0
10 *40:8 *41:10 0
*RES
1 *488:X *41:10 46.1394 
2 *41:10 ph_sw[7] 23.9449 
*END

*D_NET *42 0.00238472
*CONN
*P ph_sw[8] O
*I *490:X O *D sg13cmos5l_buf_1
*CAP
1 ph_sw[8] 0.000349469
2 *490:X 0.000442123
3 *42:10 0.000791592
4 ph_sw[8] pl_sw[8] 0
5 ph_sw[8] pl_sw[9] 0
6 ph_sw[8] *52:10 0.000176625
7 *42:10 ph_sw[9] 4.73078e-05
8 *42:10 pl_sw[10] 0
9 *42:10 *53:8 0.000395483
10 *42:10 *141:12 0
11 *42:10 *153:12 0
12 *41:10 *42:10 0.000182121
*RES
1 *490:X *42:10 45.6135 
2 *42:10 ph_sw[8] 24.1612 
*END

*D_NET *43 0.00288726
*CONN
*P ph_sw[9] O
*I *491:X O *D sg13cmos5l_buf_1
*CAP
1 ph_sw[9] 0.00102859
2 *491:X 0.00102859
3 ph_sw[9] pl_sw[10] 0
4 ph_sw[9] pl_sw[9] 0
5 ph_sw[9] *442:A 0
6 ph_sw[9] *491:A 0.000241907
7 ph_sw[9] *587:RESET_B 0.000284043
8 ph_sw[9] *593:RESET_B 0
9 ph_sw[9] *91:262 0
10 ph_sw[9] *142:10 0.000176443
11 ph_sw[9] *261:10 8.03692e-05
12 ph_sw[9] *262:12 0
13 ph_sw[9] *267:25 0
14 *611:A ph_sw[9] 0
15 *42:10 ph_sw[9] 4.73078e-05
*RES
1 *491:X ph_sw[9] 31.433 
*END

*D_NET *44 0.00224323
*CONN
*P pl_sw[0] O
*I *492:X O *D sg13cmos5l_buf_1
*CAP
1 pl_sw[0] 0.000741833
2 *492:X 0.000741833
3 pl_sw[0] *457:A 0.000534078
4 pl_sw[0] *480:A 4.79124e-05
5 pl_sw[0] *492:A 0
6 pl_sw[0] *46:10 0
7 pl_sw[0] *128:10 0.000177569
8 pl_sw[0] *177:18 0
9 ph_sw[0] pl_sw[0] 0
*RES
1 *492:X pl_sw[0] 28.7241 
*END

*D_NET *45 0.00194774
*CONN
*P pl_sw[10] O
*I *493:X O *D sg13cmos5l_buf_1
*CAP
1 pl_sw[10] 0.000428059
2 *493:X 0.000336077
3 *45:10 0.000764136
4 *45:10 *193:33 0.000209736
5 *45:10 *196:8 0
6 frame pl_sw[10] 0
7 frame *45:10 0.000209736
8 ph_sw[10] pl_sw[10] 0
9 ph_sw[9] pl_sw[10] 0
10 *611:A pl_sw[10] 0
11 *42:10 pl_sw[10] 0
*RES
1 *493:X *45:10 43.4814 
2 *45:10 pl_sw[10] 25.0264 
*END

*D_NET *46 0.00134824
*CONN
*P pl_sw[1] O
*I *494:X O *D sg13cmos5l_buf_1
*CAP
1 pl_sw[1] 0.000285881
2 *494:X 0.000388236
3 *46:10 0.000674118
4 *46:10 *145:10 0
5 ph_sw[0] pl_sw[1] 0
6 ph_sw[0] *46:10 0
7 ph_sw[1] pl_sw[1] 0
8 pl_sw[0] *46:10 0
9 *35:8 *46:10 0
*RES
1 *494:X *46:10 44.0376 
2 *46:10 pl_sw[1] 23.5123 
*END

*D_NET *47 0.00178528
*CONN
*P pl_sw[2] O
*I *495:X O *D sg13cmos5l_buf_1
*CAP
1 pl_sw[2] 0.000327549
2 *495:X 0.00056509
3 *47:12 0.000892638
4 *47:12 *128:25 0
5 *47:12 *134:8 0
6 ph_sw[1] pl_sw[2] 0
7 ph_sw[1] *47:12 0
8 ph_sw[2] pl_sw[2] 0
9 *35:8 *47:12 0
10 *36:8 *47:12 0
*RES
1 *495:X *47:12 45.4384 
2 *47:12 pl_sw[2] 23.9449 
*END

*D_NET *48 0.00214406
*CONN
*P pl_sw[3] O
*I *496:X O *D sg13cmos5l_buf_1
*CAP
1 pl_sw[3] 0.000805304
2 *496:X 0.000805304
3 pl_sw[3] *415:A 0.000533454
4 pl_sw[3] *426:A 0
5 pl_sw[3] *485:A 0
6 pl_sw[3] *496:A 0
7 pl_sw[3] *49:10 0
8 ph_sw[2] pl_sw[3] 0
9 ph_sw[3] pl_sw[3] 0
10 *37:10 pl_sw[3] 0
11 *38:10 pl_sw[3] 0
*RES
1 *496:X pl_sw[3] 28.7241 
*END

*D_NET *49 0.00258565
*CONN
*P pl_sw[4] O
*I *497:X O *D sg13cmos5l_buf_1
*CAP
1 pl_sw[4] 0.000344023
2 *497:X 0.000561889
3 *49:10 0.000905912
4 *49:10 *135:8 0
5 *49:10 *136:8 0
6 ph_sw[3] pl_sw[4] 0
7 ph_sw[4] pl_sw[4] 0
8 pl_sw[3] *49:10 0
9 *37:10 *49:10 0
10 *38:10 *49:10 0.000773829
*RES
1 *497:X *49:10 46.077 
2 *49:10 pl_sw[4] 23.9449 
*END

*D_NET *50 0.00259659
*CONN
*P pl_sw[5] O
*I *498:X O *D sg13cmos5l_buf_1
*CAP
1 pl_sw[5] 0.000285881
2 *498:X 0.000574621
3 *50:10 0.000860503
4 *50:10 *156:10 0
5 *50:10 *156:21 0
6 ph_sw[4] pl_sw[5] 0
7 ph_sw[5] pl_sw[5] 0
8 *38:10 *50:10 0.000875588
*RES
1 *498:X *50:10 47.4984 
2 *50:10 pl_sw[5] 23.5123 
*END

*D_NET *51 0.00247343
*CONN
*P pl_sw[6] O
*I *499:X O *D sg13cmos5l_buf_1
*CAP
1 pl_sw[6] 0.000443583
2 *499:X 0.000241012
3 *51:16 0.000536394
4 *51:10 0.000333824
5 pl_sw[6] *412:A 0
6 pl_sw[6] *609:RESET_B 0
7 pl_sw[6] *609:D 1.54449e-05
8 pl_sw[6] *138:10 0
9 *51:10 *137:10 0.000504791
10 *51:10 *156:21 0
11 ph_sw[5] pl_sw[6] 0
12 ph_sw[6] pl_sw[6] 0
13 *39:10 *51:10 0.000398379
*RES
1 *499:X *51:10 43.1415 
2 *51:10 *51:16 40.9682 
3 *51:16 pl_sw[6] 25.2427 
*END

*D_NET *52 0.00218405
*CONN
*P pl_sw[7] O
*I *501:X O *D sg13cmos5l_buf_1
*CAP
1 pl_sw[7] 0.000253435
2 *501:X 0.000750275
3 *52:10 0.00100371
4 *52:10 pl_sw[8] 0
5 ph_sw[6] pl_sw[7] 0
6 ph_sw[7] pl_sw[7] 0
7 ph_sw[8] *52:10 0.000176625
8 *40:8 *52:10 0
9 *41:10 *52:10 0
*RES
1 *501:X *52:10 48.6726 
2 *52:10 pl_sw[7] 23.0797 
*END

*D_NET *53 0.00260707
*CONN
*P pl_sw[8] O
*I *502:X O *D sg13cmos5l_buf_1
*CAP
1 pl_sw[8] 0.000392083
2 *502:X 0.000299626
3 *53:8 0.000691709
4 *53:8 *140:8 0.000828166
5 *53:8 *153:12 0
6 ph_sw[7] pl_sw[8] 0
7 ph_sw[8] pl_sw[8] 0
8 *41:10 *53:8 0
9 *42:10 *53:8 0.000395483
10 *52:10 pl_sw[8] 0
*RES
1 *502:X *53:8 44.3054 
2 *53:8 pl_sw[8] 24.3775 
*END

*D_NET *54 0.00256192
*CONN
*P pl_sw[9] O
*I *503:X O *D sg13cmos5l_buf_1
*CAP
1 pl_sw[9] 0.000583735
2 *503:X 0.000382167
3 *54:8 0.000965902
4 pl_sw[9] *409:A 0
5 pl_sw[9] *142:10 0
6 pl_sw[9] *267:25 0
7 *54:8 *141:12 0
8 *54:8 *142:10 0.00012816
9 *54:8 *267:25 0.000501961
10 *54:8 *268:24 0
11 ph_sw[8] pl_sw[9] 0
12 ph_sw[9] pl_sw[9] 0
13 *611:A *54:8 0
*RES
1 *503:X *54:8 44.0582 
2 *54:8 pl_sw[9] 26.3242 
*END

*D_NET *55 0.00132132
*CONN
*P rdy I
*I *457:A I *D sg13cmos5l_buf_1
*CAP
1 rdy 0.000393619
2 *457:A 0.000393619
3 pl_sw[0] *457:A 0.000534078
*RES
1 rdy *457:A 44.7483 
*END

*D_NET *56 0.000423118
*CONN
*I *389:A1 I *D sg13cmos5l_a22oi_1
*I *377:Y O *D sg13cmos5l_inv_1
*CAP
1 *389:A1 0.000180275
2 *377:Y 0.000180275
3 *389:A1 *377:A 1.54556e-05
4 *389:A1 *389:B2 0
5 *389:A1 *446:A 4.71122e-05
*RES
1 *377:Y *389:A1 41.7458 
*END

*D_NET *57 0.000751365
*CONN
*I *404:A1 I *D sg13cmos5l_a221oi_1
*I *378:Y O *D sg13cmos5l_inv_1
*CAP
1 *404:A1 4.07649e-05
2 *378:Y 0.000334917
3 *57:8 0.000375682
4 *404:A1 *98:14 0
5 *57:8 *279:53 0
6 *57:8 *281:22 0
*RES
1 *378:Y *57:8 42.575 
2 *57:8 *404:A1 40.3193 
*END

*D_NET *58 0.00363154
*CONN
*I *400:A1 I *D sg13cmos5l_a22oi_1
*I *379:Y O *D sg13cmos5l_inv_1
*CAP
1 *400:A1 0
2 *379:Y 0
3 *58:12 0.000942987
4 *58:6 0.000942987
5 *58:12 *516:CLK 0.000671398
6 *58:12 *599:A 0.000239604
7 *58:12 *156:58 0.000834566
*RES
1 *379:Y *58:6 40 
2 *58:6 *58:12 32.2879 
3 *58:12 *400:A1 20 
*END

*D_NET *59 0.000335276
*CONN
*I *403:A1 I *D sg13cmos5l_a21oi_1
*I *380:Y O *D sg13cmos5l_inv_1
*CAP
1 *403:A1 0.000159938
2 *380:Y 0.000159938
3 *403:A1 *383:A 0
4 *403:A1 *403:B1 1.54008e-05
5 *403:A1 *445:A 0
6 *403:A1 *238:20 0
*RES
1 *380:Y *403:A1 41.751 
*END

*D_NET *60 0.0057211
*CONN
*I *406:A I *D sg13cmos5l_nand2_1
*I *391:A1 I *D sg13cmos5l_a22oi_1
*I *390:B I *D sg13cmos5l_nand2_1
*I *381:Y O *D sg13cmos5l_nor2b_1
*CAP
1 *406:A 0
2 *391:A1 0.000288179
3 *390:B 0
4 *381:Y 0.000740849
5 *60:22 0.000426019
6 *60:16 0.000395483
7 *60:10 0.000998491
8 *391:A1 *391:B1 9.2009e-05
9 *391:A1 *393:A 1.54008e-05
10 *391:A1 *398:A1 0.000239977
11 *391:A1 *69:14 1.00942e-05
12 *391:A1 *279:18 0
13 *60:10 *382:B 0
14 *60:10 *395:A 0.000128247
15 *60:10 *61:44 0
16 *60:10 *114:12 0
17 *60:10 *239:8 0.00151164
18 *60:10 *240:33 0
19 *60:10 *283:63 0
20 *60:16 *463:A 0.000339129
21 *60:16 *614:D 0
22 *60:22 *63:32 0.000185245
23 *60:22 *78:8 7.57164e-05
24 *60:22 *159:25 0
25 nh_sw[5] *60:16 0.000274617
*RES
1 *381:Y *60:10 49.0743 
2 *60:10 *60:16 23.1106 
3 *60:16 *60:22 41.5862 