* MSPHY9932 ref (per-instance iovss/iovdd)
.model sg13_lv_nmos nmos
.model sg13_lv_pmos pmos
.model sg13_hv_nmos nmos
.model sg13_hv_pmos pmos

.subckt MSPHY9932_ref vdd cks vip vin vddr data[0] data[1] data[2] cko frame
M0 SAR/a_15974_6162# SAR/sg13cmos5l_buf_1_57.X vdd vdd sg13_lv_pmos ad=79.8f pd=0.8u as=0.1428p ps=1.52u w=0.42u l=0.13u
M1 SAR/a_7440_1948# SAR/a_6889_1680# vdd vdd sg13_lv_pmos ad=0.105p pd=1.21u as=1.86162p ps=11.935u w=1u l=0.13u
M2 vdd SAR/sg13cmos5l_inv_1_27.Y SAR/a_14632_9224# vdd sg13_lv_pmos ad=0.2114p pd=1.54u as=0.2856p ps=2.36u w=0.84u l=0.13u
M3 vss SAR/a_7820_9150# SAR/sg13cmos5l_buf_1_73.X vss sg13_lv_nmos ad=0.14875p pd=1.16u as=0.2886p ps=2.26u w=0.74u l=0.13u
M4 vdd SAR/sg13cmos5l_dfrbp_1_6.RESET_B SAR/a_12490_6385# vdd sg13_lv_pmos ad=0.1563p pd=1.22u as=0.147p ps=1.54u w=0.42u l=0.13u
M5 vdd SAR/a_10473_9186# SAR/a_10406_9624# vdd sg13_lv_pmos ad=0.2387p pd=1.84u as=0.1008p ps=0.9u w=0.42u l=0.13u
M6 vss SAR/a_15429_7653# SAR/a_15531_7796# vss sg13_lv_nmos ad=1.49685p pd=9.6u as=0.2516p ps=2.16u w=0.74u l=0.13u
M7 vdd SAR/a_16940_3102# nh_sw[8] vdd sg13_lv_pmos ad=0.2114p pd=1.54u as=0.42p ps=2.99u w=1.12u l=0.13u
M8 vdd SAR/a_12976_2630# SAR/a_12921_2511# vdd sg13_lv_pmos ad=1.86162p pd=11.935u as=93.45f ps=0.865u w=0.42u l=0.13u
M9 SAR/sg13cmos5l_buf_1_44.A SAR/a_5673_3138# vss vss sg13_lv_nmos ad=0.2516p pd=2.16u as=0.1406p ps=1.12u w=0.74u l=0.13u
M10 SAR/a_13072_4142# SAR/a_12815_4261# SAR/a_13234_4338# vss sg13_lv_nmos ad=0.1428p pd=1.52u as=37.8f ps=0.6u w=0.42u l=0.13u
M11 vdd SAR/sg13cmos5l_inv_1_6.A SAR/sg13cmos5l_buf_1_0.A vdd sg13_lv_pmos ad=0.3808p pd=2.92u as=0.3808p ps=2.92u w=1.12u l=0.13u
M12 SAR/a_5104_4870# SAR/a_4847_4727# SAR/a_5266_4650# vss sg13_lv_nmos ad=0.1428p pd=1.52u as=37.8f ps=0.6u w=0.42u l=0.13u
M13 SAR/a_18615_5770# SAR/sg13cmos5l_dfrbp_1_8.D vss vss sg13_lv_nmos ad=0.2516p pd=2.16u as=0.15055p ps=1.17u w=0.74u l=0.13u
M14 SAR/a_11072_5347# SAR/sg13cmos5l_nor2_1_0.A vdd vdd sg13_lv_pmos ad=0.2856p pd=2.36u as=0.1596p ps=1.22u w=0.84u l=0.13u
M15 vdd SAR/sg13cmos5l_dfrbp_1_21.Q_N SAR/a_18793_6216# vdd sg13_lv_pmos ad=1.07253p pd=6.75u as=0.2856p ps=2.36u w=0.84u l=0.13u
M16 vdd SAR/a_14543_3215# SAR/a_15380_3436# vdd sg13_lv_pmos ad=0.2128p pd=1.5u as=0.3864p ps=2.93u w=1.12u l=0.13u
M17 pl_sw[5] SAR/a_7336_9224# vss vss sg13_lv_nmos ad=0.2886p pd=2.26u as=0.14875p ps=1.16u w=0.74u l=0.13u
M18 SAR/a_11973_1605# SAR/sg13cmos5l_dfrbp_1_0.CLK vss vss sg13_lv_nmos ad=0.2516p pd=2.16u as=5.84582p ps=38.34u w=0.74u l=0.13u
M19 vdd SAR/a_11973_3911# SAR/a_12075_3911# vdd sg13_lv_pmos ad=1.43437p pd=9.105u as=0.3864p ps=2.93u w=1.12u l=0.13u
M20 vss SAR/a_3407_8797# SAR/a_4244_8436# vss sg13_lv_nmos ad=0.1406p pd=1.12u as=0.2516p ps=2.16u w=0.74u l=0.13u
M21 vdd SAR/a_19209_5769# SAR/a_19734_5842# vdd sg13_lv_pmos ad=0.1974p pd=1.5u as=0.2856p ps=2.36u w=0.84u l=0.13u
M22 SAR/sg13cmos5l_dlhr_1_16.Q SAR/a_19209_5769# vss vss sg13_lv_nmos ad=0.2516p pd=2.16u as=0.1406p ps=1.12u w=0.74u l=0.13u
M23 vdd SAR/a_19340_8400# pl_sw[9] vdd sg13_lv_pmos ad=0.2114p pd=1.54u as=0.42p ps=2.99u w=1.12u l=0.13u
M24 SAR/sg13cmos5l_dlhr_1_2.D SAR/a_6479_2749# vss vss sg13_lv_nmos ad=0.2849p pd=2.25u as=0.2516p ps=2.16u w=0.74u l=0.13u
M25 SAR/a_13100_8400# SAR/sg13cmos5l_buf_1_90.X vss vss sg13_lv_nmos ad=0.187p pd=1.78u as=0.14875p ps=1.16u w=0.55u l=0.13u
M26 SAR/a_10071_7282# SAR/sg13cmos5l_dfrbp_1_18.Q vss vss sg13_lv_nmos ad=0.2516p pd=2.16u as=0.15055p ps=1.17u w=0.74u l=0.13u
M27 vdd SAR/a_10288_8678# SAR/a_10233_8559# vdd sg13_lv_pmos ad=1.15047p pd=7.175u as=93.45f ps=0.865u w=0.42u l=0.13u
M28 SAR/a_13701_3117# SAR/sg13cmos5l_dfrbp_1_0.CLK vss vss sg13_lv_nmos ad=0.2516p pd=2.16u as=2.43055p ps=15.415u w=0.74u l=0.13u
M29 SAR/a_1484_9150# SAR/sg13cmos5l_inv_1_19.A vss vss sg13_lv_nmos ad=0.187p pd=1.78u as=0.14875p ps=1.16u w=0.55u l=0.13u
M30 SAR/a_934_7349# SAR/sg13cmos5l_dfrbp_1_6.RESET_B vss vss sg13_lv_nmos ad=37.8f pd=0.6u as=0.1701p ps=1.65u w=0.42u l=0.13u
M31 vdd SAR/a_14889_7281# SAR/a_14822_6924# vdd sg13_lv_pmos ad=0.2387p pd=1.84u as=0.1008p ps=0.9u w=0.42u l=0.13u
M32 SAR/sg13cmos5l_buf_1_19.A SAR/a_18856_8436# vdd vdd sg13_lv_pmos ad=0.42p pd=2.99u as=0.2114p ps=1.54u w=1.12u l=0.13u
M33 SAR/a_16068_6928# SAR/a_16042_6892# vdd vdd sg13_lv_pmos ad=0.34p pd=2.68u as=0.36237p ps=2.605u w=1u l=0.13u
M34 vdd SAR/a_16748_9150# pl_sw[7] vdd sg13_lv_pmos ad=0.2114p pd=1.54u as=0.42p ps=2.99u w=1.12u l=0.13u
M35 SAR/sg13cmos5l_buf_1_96.A SAR/a_10665_7281# vss vss sg13_lv_nmos ad=0.2516p pd=2.16u as=0.1406p ps=1.12u w=0.74u l=0.13u
M36 SAR/a_14889_7281# SAR/a_14708_6924# vdd vdd sg13_lv_pmos ad=0.2128p pd=1.5u as=0.2387p ps=1.84u w=1.12u l=0.13u
M37 SAR/a_6898_2826# SAR/sg13cmos5l_dfrbp_1_6.RESET_B vss vss sg13_lv_nmos ad=37.8f pd=0.6u as=79.8f ps=0.8u w=0.42u l=0.13u
M38 SAR/a_11530_1849# SAR/a_11973_1605# SAR/a_11913_2017# vdd sg13_lv_pmos ad=79.8f pd=0.8u as=63f ps=0.72u w=0.42u l=0.13u
M39 vss SAR/sg13cmos5l_buf_1_111.A SAR/a_18376_9224# vss sg13_lv_nmos ad=0.14875p pd=1.16u as=0.187p ps=1.78u w=0.55u l=0.13u
M40 SAR/a_16677_6141# SAR/sg13cmos5l_dfrbp_1_8.D vdd vdd sg13_lv_pmos ad=0.4088p pd=2.97u as=1.04815p ps=6.595u w=1.12u l=0.13u
M41 SAR/a_13284_3456# SAR/a_13258_3361# vdd vdd sg13_lv_pmos ad=0.34p pd=2.68u as=0.36237p ps=2.605u w=1u l=0.13u
M42 SAR/a_16271_7751# SAR/a_15429_7653# SAR/a_16177_7751# vss sg13_lv_nmos ad=0.12665p pd=1.145u as=0.1428p ps=1.52u w=0.42u l=0.13u
M43 vdd SAR/a_7689_1626# SAR/a_7622_2064# vdd sg13_lv_pmos ad=0.2387p pd=1.84u as=0.1008p ps=0.9u w=0.42u l=0.13u
M44 vss SAR/a_9705_4650# SAR/a_9660_4686# vss sg13_lv_nmos ad=0.1428p pd=1.52u as=47.25f ps=0.645u w=0.42u l=0.13u
M45 SAR/sg13cmos5l_dfrbp_1_12.Q_N SAR/a_7055_4261# vss vss sg13_lv_nmos ad=0.2849p pd=2.25u as=0.2516p ps=2.16u w=0.74u l=0.13u
M46 SAR/sg13cmos5l_nor2_1_2.A SAR/sg13cmos5l_inv_1_9.Y vdd vdd sg13_lv_pmos ad=0.3808p pd=2.92u as=0.3808p ps=2.92u w=1.12u l=0.13u
M47 vss SAR/a_2565_8447# SAR/a_2667_8447# vss sg13_lv_nmos ad=2.92392p pd=18.89u as=0.2516p ps=2.16u w=0.74u l=0.13u
M48 SAR/a_1997_6126# SAR/a_2727_6380# SAR/a_2748_6126# vss sg13_lv_nmos ad=0.12665p pd=1.145u as=0.3473p ps=2.71u w=0.74u l=0.13u
M49 vss vdd vss vss sg13_lv_nmos ad=0.1428p pd=1.52u as=0.40368n ps=2.16158m w=0.42u l=1u
M50 SAR/a_15702_4187# SAR/a_15821_3864# vdd vdd sg13_lv_pmos ad=0.3864p pd=2.93u as=0.2128p ps=1.5u w=1.12u l=0.13u
M51 SAR/a_10031_8797# SAR/a_9189_8447# SAR/a_9937_8797# vss sg13_lv_nmos ad=0.12665p pd=1.145u as=0.1428p ps=1.52u w=0.42u l=0.13u
M52 SAR/a_5414_6162# SAR/sg13cmos5l_dfrbp_1_6.D vdd vdd sg13_lv_pmos ad=79.8f pd=0.8u as=0.1428p ps=1.52u w=0.42u l=0.13u
M53 vdd SAR/a_15429_7653# SAR/a_15531_7796# vdd sg13_lv_pmos ad=1.15047p pd=7.175u as=0.3864p ps=2.93u w=1.12u l=0.13u
M54 vdd SAR/a_1967_7285# SAR/a_2804_6924# vdd sg13_lv_pmos ad=0.2128p pd=1.5u as=0.3864p ps=2.93u w=1.12u l=0.13u
M55 nl_sw[3] SAR/a_4456_1664# vss vss sg13_lv_nmos ad=0.2886p pd=2.26u as=0.14875p ps=1.16u w=0.74u l=0.13u
M56 vss SAR/sg13cmos5l_nor2_1_0.A SAR/a_12814_4692# vss sg13_lv_nmos ad=0.17255p pd=1.25u as=0.187p ps=1.78u w=0.55u l=0.13u
M57 SAR/sg13cmos5l_buf_1_78.X SAR/a_6184_9224# vdd vdd sg13_lv_pmos ad=0.42p pd=2.99u as=0.2114p ps=1.54u w=1.12u l=0.13u
M58 SAR/a_12980_6924# SAR/a_12567_7282# SAR/a_12912_6924# vdd sg13_lv_pmos ad=0.191p pd=1.44u as=0.105p ps=1.21u w=1u l=0.13u
M59 vss SAR/a_1402_3864# SAR/a_1121_4166# vss sg13_lv_nmos ad=79.8f pd=0.8u as=0.1428p ps=1.52u w=0.42u l=0.5u
M60 SAR/a_9940_4636# SAR/a_9524_4972# SAR/a_9705_4650# vss sg13_lv_nmos ad=77.7f pd=0.95u as=0.2516p ps=2.16u w=0.74u l=0.13u
M61 SAR/a_2732_1590# SAR/sg13cmos5l_buf_1_37.A vss vss sg13_lv_nmos ad=0.187p pd=1.78u as=0.14875p ps=1.16u w=0.55u l=0.13u
M62 SAR/a_11556_1944# SAR/a_12075_1748# SAR/a_12815_1703# vss sg13_lv_nmos ad=0.3473p pd=2.71u as=0.12665p ps=1.145u w=0.74u l=0.13u
M63 SAR/a_2566_3151# SAR/sg13cmos5l_dfrbp_1_6.RESET_B vss vss sg13_lv_nmos ad=37.8f pd=0.6u as=0.1701p ps=1.65u w=0.42u l=0.13u
M64 vss SAR/sg13cmos5l_buf_1_5.A SAR/sg13cmos5l_inv_1_27.Y vss sg13_lv_nmos ad=0.2516p pd=2.16u as=0.2516p ps=2.16u w=0.74u l=0.13u
M65 SAR/a_11973_1605# SAR/sg13cmos5l_dfrbp_1_0.CLK vdd vdd sg13_lv_pmos ad=0.4088p pd=2.97u as=1.777p ps=11.395u w=1.12u l=0.13u
M66 SAR/a_3575_6553# SAR/a_2879_6432# SAR/a_3669_6320# vss sg13_lv_nmos ad=0.1296p pd=1.52u as=79.8f ps=0.8u w=0.42u l=0.13u
M67 SAR/a_4652_6126# SAR/sg13cmos5l_buf_1_59.A vss vss sg13_lv_nmos ad=0.187p pd=1.78u as=0.14875p ps=1.16u w=0.55u l=0.13u
M68 SAR/a_5673_3138# SAR/a_5492_3460# vdd vdd sg13_lv_pmos ad=0.2128p pd=1.5u as=0.2387p ps=1.84u w=1.12u l=0.13u
M69 SAR/a_10224_9508# SAR/a_9673_9240# vdd vdd sg13_lv_pmos ad=0.105p pd=1.21u as=4.11675p ps=27.17u w=1u l=0.13u
M70 SAR/sg13cmos5l_dlhr_1_1.Q SAR/a_2409_4650# vss vss sg13_lv_nmos ad=0.2516p pd=2.16u as=0.1406p ps=1.12u w=0.74u l=0.13u
M71 vdd SAR/sg13cmos5l_dlhr_1_0.D SAR/a_6889_1680# vdd sg13_lv_pmos ad=1.86162p pd=11.935u as=0.2856p ps=2.36u w=0.84u l=0.13u
M72 SAR/a_19090_1626# SAR/sg13cmos5l_dfrbp_1_0.RESET_B vss vss sg13_lv_nmos ad=37.8f pd=0.6u as=79.8f ps=0.8u w=0.42u l=0.13u
M73 SAR/a_17493_3947# SAR/a_16551_3987# SAR/a_17354_4180# vss sg13_lv_nmos ad=79.8f pd=0.8u as=0.2373p ps=1.97u w=0.42u l=0.13u
M74 SAR/a_5132_3864# SAR/sg13cmos5l_buf_1_44.A vss vss sg13_lv_nmos ad=0.187p pd=1.78u as=0.14875p ps=1.16u w=0.55u l=0.13u
M75 vss vdd vss vss sg13_lv_nmos ad=0.1428p pd=1.52u as=0 ps=0 w=0.42u l=1u
M76 vdd SAR/sg13cmos5l_dfrbp_1_6.RESET_B SAR/a_2314_3361# vdd sg13_lv_pmos ad=0.1563p pd=1.22u as=0.147p ps=1.54u w=0.42u l=0.13u
M77 SAR/sg13cmos5l_dlhr_1_16.Q SAR/a_19209_5769# vdd vdd sg13_lv_pmos ad=0.3808p pd=2.92u as=0.2128p ps=1.5u w=1.12u l=0.13u
M78 SAR/a_13701_3117# SAR/sg13cmos5l_dfrbp_1_0.CLK vdd vdd sg13_lv_pmos ad=0.4088p pd=2.97u as=1.38655p ps=8.8u w=1.12u l=0.13u
M79 SAR/a_1967_5773# SAR/a_1125_5423# SAR/a_1873_5773# vss sg13_lv_nmos ad=0.12665p pd=1.145u as=0.1428p ps=1.52u w=0.42u l=0.13u
M80 SAR/a_14295_7282# SAR/sg13cmos5l_dfrbp_1_23.CLK vdd vdd sg13_lv_pmos ad=0.3234p pd=2.45u as=1.04815p ps=6.595u w=0.84u l=0.13u
M81 SAR/sg13cmos5l_dlhr_1_12.D SAR/a_16271_7751# vdd vdd sg13_lv_pmos ad=0.4312p pd=3.01u as=0.2639p ps=1.81u w=1.12u l=0.13u
M82 vdd SAR/a_17327_7285# SAR/a_18164_6924# vdd sg13_lv_pmos ad=0.2128p pd=1.5u as=0.3864p ps=2.93u w=1.12u l=0.13u
M83 vdd SAR/a_15177_5769# SAR/a_15702_5842# vdd sg13_lv_pmos ad=0.1974p pd=1.5u as=0.2856p ps=2.36u w=0.84u l=0.13u
M84 SAR/a_16748_9150# SAR/sg13cmos5l_buf_1_93.X vdd vdd sg13_lv_pmos ad=0.2856p pd=2.36u as=0.2114p ps=1.54u w=0.84u l=0.13u
M85 vdd SAR/a_7689_1626# SAR/a_8214_1608# vdd sg13_lv_pmos ad=0.1974p pd=1.5u as=0.2856p ps=2.36u w=0.84u l=0.13u
M86 SAR/a_13460_7996# SAR/a_13178_7684# SAR/a_13393_7666# vss sg13_lv_nmos ad=0.141p pd=1.17u as=71.99999f ps=0.865u w=0.64u l=0.13u
M87 SAR/a_1402_3864# SAR/sg13cmos5l_dlygate4sd2_1_0.X vdd vdd sg13_lv_pmos ad=0.1428p pd=1.52u as=0.1523p ps=1.38u w=0.42u l=0.13u
M88 vdd SAR/a_12716_8400# ph_sw[5] vdd sg13_lv_pmos ad=0.2114p pd=1.54u as=0.42p ps=2.99u w=1.12u l=0.13u
M89 SAR/a_12324_6162# SAR/sg13cmos5l_buf_1_57.X SAR/a_12230_6162# vss sg13_lv_nmos ad=60.89999f pd=0.71u as=0.1428p ps=1.52u w=0.42u l=0.13u
M90 SAR/a_6117_6141# SAR/sg13cmos5l_dlhr_1_5.GATE vdd vdd sg13_lv_pmos ad=0.4088p pd=2.97u as=1.04815p ps=6.595u w=1.12u l=0.13u
M91 vdd SAR/sg13cmos5l_dfrbp_1_6.RESET_B SAR/a_8457_7281# vdd sg13_lv_pmos ad=0.2128p pd=1.5u as=0.2128p ps=1.5u w=1.12u l=0.13u
M92 vss SAR/a_12549_9165# SAR/a_12651_9308# vss sg13_lv_nmos ad=2.92392p pd=18.89u as=0.2516p ps=2.16u w=0.74u l=0.13u
M93 vdd SAR/a_18860_9150# ph_sw[8] vdd sg13_lv_pmos ad=0.2114p pd=1.54u as=0.42p ps=2.99u w=1.12u l=0.13u
M94 vdd SAR/sg13cmos5l_buf_1_96.A SAR/a_11464_8436# vdd sg13_lv_pmos ad=0.2114p pd=1.54u as=0.2856p ps=2.36u w=0.84u l=0.13u
M95 SAR/sg13cmos5l_dfrbp_1_1.D SAR/sg13cmos5l_a22oi_1_2.B2 SAR/a_9823_2780# vss sg13_lv_nmos ad=0.2664p pd=1.46u as=0.13875p ps=1.115u w=0.74u l=0.13u
M96 vdd SAR/a_16751_2749# SAR/a_17588_2388# vdd sg13_lv_pmos ad=0.2128p pd=1.5u as=0.3864p ps=2.93u w=1.12u l=0.13u
M97 SAR/sg13cmos5l_dlhr_1_0.D SAR/a_7316_2388# vss vss sg13_lv_nmos ad=0.2516p pd=2.16u as=0.1406p ps=1.12u w=0.74u l=0.13u
M98 SAR/a_2122_8404# SAR/a_2565_8447# SAR/a_1862_8874# vss sg13_lv_nmos ad=79.8f pd=0.8u as=0.1296p ps=1.52u w=0.42u l=0.13u
M99 SAR/a_17367_8794# SAR/sg13cmos5l_dfrbp_1_22.D vdd vdd sg13_lv_pmos ad=0.3234p pd=2.45u as=1.12242p ps=7u w=0.84u l=0.13u
M100 SAR/sg13cmos5l_buf_1_25.A SAR/sg13cmos5l_inv_1_14.A vss vss sg13_lv_nmos ad=0.2516p pd=2.16u as=0.2516p ps=2.16u w=0.74u l=0.13u
M101 SAR/a_20204_5376# SAR/sg13cmos5l_dlhr_1_16.Q vdd vdd sg13_lv_pmos ad=0.2856p pd=2.36u as=0.2114p ps=1.54u w=0.84u l=0.13u
M102 vdd rdy SAR/a_424_8436# vdd sg13_lv_pmos ad=0.2114p pd=1.54u as=0.2856p ps=2.36u w=0.84u l=0.13u
M103 SAR/sg13cmos5l_buf_1_87.A SAR/a_18376_9224# vdd vdd sg13_lv_pmos ad=0.42p pd=2.99u as=0.2114p ps=1.54u w=1.12u l=0.13u
M104 SAR/a_6479_2749# SAR/a_5637_2399# SAR/a_6385_2749# vss sg13_lv_nmos ad=0.12665p pd=1.145u as=0.1428p ps=1.52u w=0.42u l=0.13u
M105 SAR/a_7888_4870# SAR/a_7631_4727# SAR/a_8050_4650# vss sg13_lv_nmos ad=0.1428p pd=1.52u as=37.8f ps=0.6u w=0.42u l=0.13u
M106 vss SAR/a_2831_7630# SAR/a_2786_7666# vss sg13_lv_nmos ad=1.49685p pd=9.6u as=71.99999f ps=0.865u w=0.64u l=0.13u
M107 _frm SAR/a_20008_7712# vss vss sg13_lv_nmos ad=0.2886p pd=2.26u as=0.14875p ps=1.16u w=0.74u l=0.13u
M108 SAR/a_6598_4663# SAR/sg13cmos5l_dfrbp_1_8.RESET_B vss vss sg13_lv_nmos ad=37.8f pd=0.6u as=0.1701p ps=1.65u w=0.42u l=0.13u
M109 SAR/a_1125_6935# SAR/sg13cmos5l_dfrbp_1_15.D vss vss sg13_lv_nmos ad=0.2516p pd=2.16u as=1.49685p ps=9.6u w=0.74u l=0.13u
M110 SAR/a_20012_2352# SAR/sg13cmos5l_buf_1_0.X vdd vdd sg13_lv_pmos ad=0.2856p pd=2.36u as=0.2114p ps=1.54u w=0.84u l=0.13u
M111 SAR/a_8486_8874# SAR/a_9291_8447# SAR/a_8746_8404# vdd sg13_lv_pmos ad=0.1428p pd=1.52u as=79.8f ps=0.8u w=0.42u l=0.13u
M112 vdd SAR/a_15887_8797# SAR/a_16724_8436# vdd sg13_lv_pmos ad=0.2128p pd=1.5u as=0.3864p ps=2.93u w=1.12u l=0.13u
M113 vss comp_p SAR/a_424_1664# vss sg13_lv_nmos ad=0.14875p pd=1.16u as=0.187p ps=1.78u w=0.55u l=0.13u
M114 vdd SAR/a_3664_4142# SAR/a_3609_4023# vdd sg13_lv_pmos ad=1.43437p pd=9.105u as=93.45f ps=0.865u w=0.42u l=0.13u
M115 nh_sw[1] SAR/a_2824_2388# vss vss sg13_lv_nmos ad=0.2886p pd=2.26u as=0.14875p ps=1.16u w=0.74u l=0.13u
M116 vdd SAR/sg13cmos5l_dfrbp_1_0.RESET_B SAR/a_17414_3138# vdd sg13_lv_pmos ad=0.36237p pd=2.605u as=79.8f ps=0.8u w=0.42u l=0.13u
M117 SAR/a_2122_3868# SAR/a_2565_3911# SAR/a_2505_3947# vdd sg13_lv_pmos ad=79.8f pd=0.8u as=63f ps=0.72u w=0.42u l=0.13u
M118 vss SAR/a_4460_9150# SAR/sg13cmos5l_buf_1_60.X vss sg13_lv_nmos ad=0.14875p pd=1.16u as=0.2886p ps=2.26u w=0.74u l=0.13u
M119 SAR/a_11846_9186# SAR/sg13cmos5l_dlhr_1_11.GATE vdd vdd sg13_lv_pmos ad=79.8f pd=0.8u as=0.1428p ps=1.52u w=0.42u l=0.13u
M120 SAR/a_3801_3453# SAR/a_2859_3260# SAR/a_3599_3215# vdd sg13_lv_pmos ad=93.45f pd=0.865u as=0.2048p ps=1.63u w=0.42u l=0.13u
M121 SAR/a_13234_4338# SAR/sg13cmos5l_dfrbp_1_0.RESET_B vss vss sg13_lv_nmos ad=37.8f pd=0.6u as=79.8f ps=0.8u w=0.42u l=0.13u
M122 SAR/a_17751_7690# SAR/sg13cmos5l_dfrbp_1_22.D vss vss sg13_lv_nmos ad=0.2516p pd=2.16u as=0.15055p ps=1.17u w=0.74u l=0.13u
M123 SAR/a_7316_3460# SAR/a_7034_3148# SAR/a_7249_3130# vss sg13_lv_nmos ad=0.141p pd=1.17u as=71.99999f ps=0.865u w=0.64u l=0.13u
M124 SAR/sg13cmos5l_buf_1_116.A SAR/a_15177_5769# vdd vdd sg13_lv_pmos ad=0.3808p pd=2.92u as=0.2128p ps=1.5u w=1.12u l=0.13u
M125 vdd SAR/sg13cmos5l_dfrbp_1_15.D SAR/a_2621_7636# vdd sg13_lv_pmos ad=1.15047p pd=7.175u as=0.3234p ps=2.45u w=0.84u l=0.13u
M126 SAR/a_14928_5412# SAR/a_14377_5770# vdd vdd sg13_lv_pmos ad=0.105p pd=1.21u as=1.28962p ps=8.195u w=1u l=0.13u
M127 SAR/a_7247_8797# SAR/a_6405_8447# SAR/a_5988_8440# vdd sg13_lv_pmos ad=0.2048p pd=1.63u as=0.34p ps=2.68u w=1u l=0.13u
M128 ph_sw[2] SAR/a_3976_9224# vss vss sg13_lv_nmos ad=0.2886p pd=2.26u as=0.14875p ps=1.16u w=0.74u l=0.13u
M129 SAR/a_18196_8824# SAR/a_17780_8436# SAR/a_17961_8793# vss sg13_lv_nmos ad=77.7f pd=0.95u as=0.2516p ps=2.16u w=0.74u l=0.13u
M130 SAR/a_8204_2352# SAR/sg13cmos5l_dlhr_1_2.Q vss vss sg13_lv_nmos ad=0.187p pd=1.78u as=0.14875p ps=1.16u w=0.55u l=0.13u
M131 SAR/a_5104_4870# SAR/sg13cmos5l_dfrbp_1_8.RESET_B vdd vdd sg13_lv_pmos ad=79.8f pd=0.8u as=1.2517p ps=7.955u w=0.42u l=0.13u
M132 SAR/sg13cmos5l_buf_1_59.A SAR/a_4425_7281# vdd vdd sg13_lv_pmos ad=0.3808p pd=2.92u as=0.2128p ps=1.5u w=1.12u l=0.13u
M133 SAR/a_16485_6935# SAR/sg13cmos5l_inv_1_2.A vss vss sg13_lv_nmos ad=0.2516p pd=2.16u as=1.49685p ps=9.6u w=0.74u l=0.13u
M134 SAR/a_17392_4870# SAR/a_17135_4727# SAR/a_17554_4650# vss sg13_lv_nmos ad=0.1428p pd=1.52u as=37.8f ps=0.6u w=0.42u l=0.13u
M135 SAR/a_18860_9150# SAR/sg13cmos5l_buf_1_101.X vdd vdd sg13_lv_pmos ad=0.2856p pd=2.36u as=0.2114p ps=1.54u w=0.84u l=0.13u
M136 SAR/sg13cmos5l_dfrbp_1_7.Q_N SAR/a_14543_3215# vss vss sg13_lv_nmos ad=0.2849p pd=2.25u as=0.2516p ps=2.16u w=0.74u l=0.13u
M137 SAR/a_3575_6553# SAR/sg13cmos5l_dfrbp_1_15.D SAR/a_4322_6162# vss sg13_lv_nmos ad=0.1428p pd=1.52u as=60.89999f ps=0.71u w=0.42u l=0.13u
M138 vdd SAR/sg13cmos5l_buf_1_5.A SAR/sg13cmos5l_inv_1_27.Y vdd sg13_lv_pmos ad=0.3808p pd=2.92u as=0.3808p ps=2.92u w=1.12u l=0.13u
M139 SAR/a_7095_1642# SAR/sg13cmos5l_dlhr_1_0.GATE vss vss sg13_lv_nmos ad=0.2516p pd=2.16u as=0.15055p ps=1.17u w=0.74u l=0.13u
M140 SAR/a_2697_3529# SAR/a_2340_3456# vdd vdd sg13_lv_pmos ad=63f pd=0.72u as=0.1563p ps=1.22u w=0.42u l=0.13u
M141 vss SAR/a_5104_4870# SAR/a_4753_4727# vss sg13_lv_nmos ad=79.8f pd=0.8u as=0.1428p ps=1.52u w=0.42u l=0.13u
M142 SAR/sg13cmos5l_nor2_1_0.A SAR/a_13556_2388# vdd vdd sg13_lv_pmos ad=0.3808p pd=2.92u as=0.2128p ps=1.5u w=1.12u l=0.13u
M143 vss SAR/sg13cmos5l_dfrbp_1_21.Q SAR/a_18409_5770# vss sg13_lv_nmos ad=0.15055p pd=1.17u as=0.187p ps=1.78u w=0.55u l=0.13u
M144 SAR/a_13698_5412# SAR/sg13cmos5l_dfrbp_1_23.Q SAR/a_13486_5412# vdd sg13_lv_pmos ad=0.2128p pd=1.5u as=0.2128p ps=1.5u w=1.12u l=0.13u
M145 SAR/a_19526_6600# SAR/a_19130_6172# SAR/a_19412_6484# vdd sg13_lv_pmos ad=0.1008p pd=0.9u as=0.191p ps=1.44u w=0.42u l=0.13u
M146 vdd SAR/a_17776_6382# SAR/a_17721_6477# vdd sg13_lv_pmos ad=1.07253p pd=6.75u as=93.45f ps=0.865u w=0.42u l=0.13u
M147 vdd SAR/a_16268_3102# nl_sw[8] vdd sg13_lv_pmos ad=0.2114p pd=1.54u as=0.42p ps=2.99u w=1.12u l=0.13u
M148 vdd SAR/a_6213_3911# SAR/a_6315_3911# vdd sg13_lv_pmos ad=1.43437p pd=9.105u as=0.3864p ps=2.93u w=1.12u l=0.13u
M149 vss SAR/sg13cmos5l_dfrbp_1_0.RESET_B SAR/a_11268_2826# vss sg13_lv_nmos ad=0.1626p pd=1.415u as=60.89999f ps=0.71u w=0.42u l=0.13u
M150 vss SAR/a_17493_3947# SAR/a_16572_4261# vss sg13_lv_nmos ad=0.1626p pd=1.415u as=0.2516p ps=2.16u w=0.74u l=0.13u
M151 vss SAR/sg13cmos5l_buf_1_65.X SAR/a_8488_9224# vss sg13_lv_nmos ad=0.14875p pd=1.16u as=0.187p ps=1.78u w=0.55u l=0.13u
M152 SAR/a_708_6928# SAR/a_682_6892# vss vss sg13_lv_nmos ad=0.2516p pd=2.16u as=0.1626p ps=1.415u w=0.74u l=0.13u
M153 SAR/a_1948_7964# SAR/sg13cmos5l_dfrbp_1_6.RESET_B vdd vdd sg13_lv_pmos ad=0.2128p pd=1.5u as=0.2128p ps=1.5u w=1.12u l=0.13u
M154 SAR/a_19161_3453# SAR/a_18219_3260# SAR/a_18959_3215# vdd sg13_lv_pmos ad=93.45f pd=0.865u as=0.2048p ps=1.63u w=0.42u l=0.13u
M155 vdd SAR/a_4041_2745# SAR/a_3974_2388# vdd sg13_lv_pmos ad=0.2387p pd=1.84u as=0.1008p ps=0.9u w=0.42u l=0.13u
M156 SAR/a_16260_6480# SAR/a_16779_6284# SAR/a_17519_6239# vss sg13_lv_nmos ad=0.3473p pd=2.71u as=0.12665p ps=1.145u w=0.74u l=0.13u
M157 vss SAR/a_1484_6126# SAR/sg13cmos5l_buf_1_40.A vss sg13_lv_nmos ad=0.14875p pd=1.16u as=0.2886p ps=2.26u w=0.74u l=0.13u
M158 vss SAR/sg13cmos5l_inv_1_3.A SAR/a_15016_9224# vss sg13_lv_nmos ad=0.14875p pd=1.16u as=0.187p ps=1.78u w=0.55u l=0.13u
M159 vdd SAR/a_18671_1703# SAR/a_18928_1846# vdd sg13_lv_pmos ad=0.2639p pd=1.81u as=79.8f ps=0.8u w=0.42u l=0.13u
M160 vss SAR/sg13cmos5l_dfrbp_1_8.RESET_B SAR/a_11940_9186# vss sg13_lv_nmos ad=0.1626p pd=1.415u as=60.89999f ps=0.71u w=0.42u l=0.13u
M161 vdd SAR/a_9033_6162# SAR/a_8966_6600# vdd sg13_lv_pmos ad=0.2387p pd=1.84u as=0.1008p ps=0.9u w=0.42u l=0.13u
M162 SAR/a_12913_7326# SAR/a_12361_7282# vss vss sg13_lv_nmos ad=71.99999f pd=0.865u as=1.49685p ps=9.6u w=0.64u l=0.13u
M163 SAR/a_5508_2813# SAR/a_5220_2392# SAR/a_5446_2813# vss sg13_lv_nmos ad=0.1428p pd=1.52u as=37.8f ps=0.6u w=0.42u l=0.13u
M164 vss SAR/a_19593_6162# SAR/a_19548_6198# vss sg13_lv_nmos ad=0.1428p pd=1.52u as=47.25f ps=0.645u w=0.42u l=0.13u
M165 SAR/a_18057_3529# SAR/a_17700_3456# vdd vdd sg13_lv_pmos ad=63f pd=0.72u as=0.1563p ps=1.22u w=0.42u l=0.13u
M166 vss SAR/a_7631_4727# SAR/a_8468_4948# vss sg13_lv_nmos ad=0.1406p pd=1.12u as=0.2516p ps=2.16u w=0.74u l=0.13u
M167 vdd vss vdd vdd sg13_lv_pmos ad=0.34p pd=2.68u as=0.43217n ps=2.29179m w=1u l=1u
M168 vdd SAR/a_10473_9186# SAR/a_10998_9168# vdd sg13_lv_pmos ad=0.1974p pd=1.5u as=0.2856p ps=2.36u w=0.84u l=0.13u
M169 SAR/a_17220_1626# SAR/sg13cmos5l_dfrbp_1_0.D SAR/a_17126_1626# vss sg13_lv_nmos ad=60.89999f pd=0.71u as=0.1428p ps=1.52u w=0.42u l=0.13u
M170 vdd SAR/a_620_7638# pl_sw[0] vdd sg13_lv_pmos ad=0.2114p pd=1.54u as=0.42p ps=2.99u w=1.12u l=0.13u
M171 SAR/a_10665_8065# SAR/a_10308_7992# vdd vdd sg13_lv_pmos ad=63f pd=0.72u as=0.1563p ps=1.22u w=0.42u l=0.13u
M172 vdd SAR/a_14800_3358# SAR/a_14745_3453# vdd sg13_lv_pmos ad=1.43437p pd=9.105u as=93.45f ps=0.865u w=0.42u l=0.13u
M173 vss SAR/sg13cmos5l_nor2_1_1.A SAR/a_15439_1630# vss sg13_lv_nmos ad=0.14505p pd=1.15u as=0.1406p ps=1.12u w=0.74u l=0.13u
M174 SAR/a_2148_3138# SAR/sg13cmos5l_dfrbp_1_6.D SAR/a_2054_3138# vss sg13_lv_nmos ad=60.89999f pd=0.71u as=0.1428p ps=1.52u w=0.42u l=0.13u
M175 SAR/a_3860_2388# SAR/a_3578_2752# SAR/a_3793_2790# vss sg13_lv_nmos ad=0.141p pd=1.17u as=71.99999f ps=0.865u w=0.64u l=0.13u
M176 SAR/sg13cmos5l_dlygate4sd2_1_0.A SAR/sg13cmos5l_inv_1_8.Y vdd vdd sg13_lv_pmos ad=0.2128p pd=1.5u as=0.3808p ps=2.92u w=1.12u l=0.13u
M177 SAR/a_1065_5459# SAR/a_708_5416# vdd vdd sg13_lv_pmos ad=63f pd=0.72u as=0.1563p ps=1.22u w=0.42u l=0.13u
M178 vss SAR/a_5132_9150# SAR/sg13cmos5l_buf_1_64.A vss sg13_lv_nmos ad=0.14875p pd=1.16u as=0.2886p ps=2.26u w=0.74u l=0.13u
M179 SAR/a_1862_8874# SAR/a_2667_8447# SAR/a_2122_8404# vdd sg13_lv_pmos ad=0.1428p pd=1.52u as=79.8f ps=0.8u w=0.42u l=0.13u
M180 SAR/a_13392_7996# SAR/a_12841_7728# vdd vdd sg13_lv_pmos ad=0.105p pd=1.21u as=1.15047p ps=7.175u w=1u l=0.13u
M181 vss SAR/sg13cmos5l_dfrbp_1_6.RESET_B SAR/a_8692_7312# vss sg13_lv_nmos ad=0.1406p pd=1.12u as=77.7f ps=0.95u w=0.74u l=0.13u
M182 SAR/a_13284_3456# SAR/a_13803_3260# SAR/a_14543_3215# vss sg13_lv_nmos ad=0.3473p pd=2.71u as=0.12665p ps=1.145u w=0.74u l=0.13u
M183 SAR/sg13cmos5l_nand2_1_2.B SAR/sg13cmos5l_or2_1_0.A SAR/a_650_3900# vdd sg13_lv_pmos ad=0.3808p pd=2.92u as=0.1176p ps=1.33u w=1.12u l=0.13u
M184 vss SAR/a_4425_7281# SAR/a_4950_7354# vss sg13_lv_nmos ad=0.1491p pd=1.18u as=0.187p ps=1.78u w=0.55u l=0.13u
M185 vdd SAR/sg13cmos5l_dfrbp_1_0.RESET_B SAR/a_17386_1849# vdd sg13_lv_pmos ad=0.1563p pd=1.22u as=0.147p ps=1.54u w=0.42u l=0.13u
M186 SAR/a_14628_8440# SAR/a_14602_8404# vdd vdd sg13_lv_pmos ad=0.34p pd=2.68u as=0.36237p ps=2.605u w=1u l=0.13u
M187 SAR/a_20492_8400# SAR/sg13cmos5l_buf_1_104.X vss vss sg13_lv_nmos ad=0.187p pd=1.78u as=0.14875p ps=1.16u w=0.55u l=0.13u
M188 SAR/a_13486_5412# SAR/sg13cmos5l_nor2b_1_0.Y vdd vdd sg13_lv_pmos ad=0.2128p pd=1.5u as=0.3808p ps=2.92u w=1.12u l=0.13u
M189 SAR/sg13cmos5l_dfrbp_1_6.D SAR/a_1672_3176# vss vss sg13_lv_nmos ad=0.2886p pd=2.26u as=0.14875p ps=1.16u w=0.74u l=0.13u
M190 SAR/sg13cmos5l_buf_1_98.A SAR/a_13641_7674# vdd vdd sg13_lv_pmos ad=0.3808p pd=2.92u as=0.2128p ps=1.5u w=1.12u l=0.13u
M191 vdd SAR/a_1997_6126# SAR/sg13cmos5l_dfrbp_1_15.Q_N vdd sg13_lv_pmos ad=0.2639p pd=1.81u as=0.4312p ps=3.01u w=1.12u l=0.13u
M192 _d1 SAR/a_20008_3900# vdd vdd sg13_lv_pmos ad=0.42p pd=2.99u as=0.2114p ps=1.54u w=1.12u l=0.13u
M193 vdd SAR/a_4950_5699# SAR/sg13cmos5l_dlhr_1_5.GATE vdd sg13_lv_pmos ad=0.2128p pd=1.5u as=0.3808p ps=2.92u w=1.12u l=0.13u
M194 SAR/a_6572_1590# SAR/sg13cmos5l_buf_1_24.A vdd vdd sg13_lv_pmos ad=0.2856p pd=2.36u as=0.2114p ps=1.54u w=0.84u l=0.13u
M195 SAR/a_8966_6600# SAR/a_8570_6172# SAR/a_8852_6484# vdd sg13_lv_pmos ad=0.1008p pd=0.9u as=0.191p ps=1.44u w=0.42u l=0.13u
M196 SAR/sg13cmos5l_buf_1_97.A SAR/a_10473_9186# vss vss sg13_lv_nmos ad=0.2516p pd=2.16u as=0.1406p ps=1.12u w=0.74u l=0.13u
M197 SAR/a_10331_1924# SAR/sg13cmos5l_nand2_1_1.B SAR/sg13cmos5l_a22oi_1_2.B1 vdd sg13_lv_pmos ad=0.2128p pd=1.5u as=0.3808p ps=2.92u w=1.12u l=0.13u
M198 vss SAR/sg13cmos5l_dfrbp_1_6.RESET_B SAR/a_516_5850# vss sg13_lv_nmos ad=0.1626p pd=1.415u as=60.89999f ps=0.71u w=0.42u l=0.13u
M199 SAR/sg13cmos5l_a221oi_1_0.A2 SAR/a_7892_3900# vdd vdd sg13_lv_pmos ad=0.3808p pd=2.92u as=0.2128p ps=1.5u w=1.12u l=0.13u
M200 SAR/a_18300_7710# SAR/a_17751_7690# SAR/a_18164_7996# vss sg13_lv_nmos ad=47.25f pd=0.645u as=0.141p ps=1.17u w=0.42u l=0.13u
M201 vdd SAR/sg13cmos5l_dfrbp_1_8.RESET_B SAR/a_14602_8404# vdd sg13_lv_pmos ad=0.1563p pd=1.22u as=0.147p ps=1.54u w=0.42u l=0.13u
M202 SAR/sg13cmos5l_dfrbp_1_1.Q SAR/a_13652_1924# vss vss sg13_lv_nmos ad=0.2516p pd=2.16u as=0.1406p ps=1.12u w=0.74u l=0.13u
M203 SAR/sg13cmos5l_a221oi_1_0.C1 SAR/sg13cmos5l_inv_1_0.A vss vss sg13_lv_nmos ad=0.1406p pd=1.12u as=0.2516p ps=2.16u w=0.74u l=0.13u
M204 vdd SAR/a_8972_9150# SAR/sg13cmos5l_buf_1_77.X vdd sg13_lv_pmos ad=0.2114p pd=1.54u as=0.42p ps=2.99u w=1.12u l=0.13u
M205 vdd SAR/sg13cmos5l_dfrbp_1_6.RESET_B SAR/a_422_7362# vdd sg13_lv_pmos ad=0.36237p pd=2.605u as=79.8f ps=0.8u w=0.42u l=0.13u
M206 vss SAR/a_11372_3102# nh_sw[5] vss sg13_lv_nmos ad=0.14875p pd=1.16u as=0.2886p ps=2.26u w=0.74u l=0.13u
M207 SAR/a_11530_3868# SAR/a_11973_3911# SAR/a_11270_4338# vss sg13_lv_nmos ad=79.8f pd=0.8u as=0.1296p ps=1.52u w=0.42u l=0.13u
M208 SAR/a_2161_4642# SAR/a_1609_4704# vss vss sg13_lv_nmos ad=71.99999f pd=0.865u as=2.41737p ps=15.64u w=0.64u l=0.13u
M209 vdd SAR/sg13cmos5l_a22oi_1_1.A1 SAR/a_14814_3876# vdd sg13_lv_pmos ad=0.3808p pd=2.92u as=0.2716p ps=1.605u w=1.12u l=0.13u
M210 vdd SAR/a_10412_6126# SAR/sg13cmos5l_buf_1_29.A vdd sg13_lv_pmos ad=0.2114p pd=1.54u as=0.42p ps=2.99u w=1.12u l=0.13u
M211 vdd SAR/sg13cmos5l_dfrbp_1_0.RESET_B SAR/a_15466_2356# vdd sg13_lv_pmos ad=0.1563p pd=1.22u as=0.147p ps=1.54u w=0.42u l=0.13u
M212 vdd vss vdd vdd sg13_lv_pmos ad=0.34p pd=2.68u as=0 ps=0 w=1u l=1u
M213 SAR/a_6188_1590# SAR/sg13cmos5l_buf_1_25.A vss vss sg13_lv_nmos ad=0.187p pd=1.78u as=0.14875p ps=1.16u w=0.55u l=0.13u
M214 SAR/sg13cmos5l_dlhr_1_11.Q_N SAR/a_13686_7354# vdd vdd sg13_lv_pmos ad=0.3808p pd=2.92u as=0.1974p ps=1.5u w=1.12u l=0.13u
M215 SAR/a_16425_6971# SAR/a_16068_6928# vdd vdd sg13_lv_pmos ad=63f pd=0.72u as=0.1563p ps=1.22u w=0.42u l=0.13u
M216 SAR/sg13cmos5l_nand2_1_1.A SAR/a_15380_3436# vss vss sg13_lv_nmos ad=0.2516p pd=2.16u as=0.1406p ps=1.12u w=0.74u l=0.13u
M217 SAR/sg13cmos5l_inv_1_2.A SAR/a_8488_9224# vdd vdd sg13_lv_pmos ad=0.42p pd=2.99u as=0.2114p ps=1.54u w=1.12u l=0.13u
M218 SAR/a_9040_7894# SAR/a_8783_7751# SAR/a_9202_7674# vss sg13_lv_nmos ad=0.1428p pd=1.52u as=37.8f ps=0.6u w=0.42u l=0.13u
M219 vdd SAR/a_7631_4727# SAR/a_7888_4870# vdd sg13_lv_pmos ad=0.2639p pd=1.81u as=79.8f ps=0.8u w=0.42u l=0.13u
M220 SAR/a_2374_4325# SAR/sg13cmos5l_dfrbp_1_8.RESET_B vss vss sg13_lv_nmos ad=37.8f pd=0.6u as=0.1701p ps=1.65u w=0.42u l=0.13u
M221 SAR/a_3831_7282# SAR/sg13cmos5l_dfrbp_1_15.D vss vss sg13_lv_nmos ad=0.2516p pd=2.16u as=0.15055p ps=1.17u w=0.74u l=0.13u
M222 SAR/a_10598_6924# SAR/a_10202_7288# SAR/a_10484_6924# vdd sg13_lv_pmos ad=0.1008p pd=0.9u as=0.191p ps=1.44u w=0.42u l=0.13u
M223 SAR/a_7750_7687# SAR/sg13cmos5l_dfrbp_1_6.RESET_B vss vss sg13_lv_nmos ad=37.8f pd=0.6u as=0.1701p ps=1.65u w=0.42u l=0.13u
M224 _d0 SAR/a_20392_2388# vdd vdd sg13_lv_pmos ad=0.42p pd=2.99u as=0.2114p ps=1.54u w=1.12u l=0.13u
M225 vss SAR/sg13cmos5l_dfrbp_1_20.Q_N SAR/a_9673_9240# vss sg13_lv_nmos ad=0.15055p pd=1.17u as=0.187p ps=1.78u w=0.55u l=0.13u
M226 SAR/a_8412_7326# SAR/a_7863_7282# SAR/a_8276_6924# vss sg13_lv_nmos ad=47.25f pd=0.645u as=0.141p ps=1.17u w=0.42u l=0.13u
M227 SAR/sg13cmos5l_buf_1_94.X SAR/a_15016_9224# vdd vdd sg13_lv_pmos ad=0.42p pd=2.99u as=0.2114p ps=1.54u w=1.12u l=0.13u
M228 vdd SAR/a_6380_7638# pl_sw[3] vdd sg13_lv_pmos ad=0.2114p pd=1.54u as=0.42p ps=2.99u w=1.12u l=0.13u
M229 vdd SAR/a_17493_3947# SAR/a_16572_4261# vdd sg13_lv_pmos ad=0.36237p pd=2.605u as=0.34p ps=2.68u w=1u l=0.13u
M230 SAR/a_11364_4338# SAR/sg13cmos5l_dfrbp_1_2.D SAR/a_11270_4338# vss sg13_lv_nmos ad=60.89999f pd=0.71u as=0.1428p ps=1.52u w=0.42u l=0.13u
M231 vdd SAR/a_13484_8400# SAR/sg13cmos5l_buf_1_5.A vdd sg13_lv_pmos ad=0.2114p pd=1.54u as=0.42p ps=2.99u w=1.12u l=0.13u
M232 SAR/a_2638_6162# SAR/a_2380_6162# vss vss sg13_lv_nmos ad=0.1428p pd=1.52u as=79.8f ps=0.8u w=0.42u l=0.13u
M233 SAR/sg13cmos5l_dlhr_1_10.Q_N SAR/a_20118_6144# vdd vdd sg13_lv_pmos ad=0.3808p pd=2.92u as=0.1974p ps=1.5u w=1.12u l=0.13u
M234 SAR/a_11460_2392# SAR/a_11434_2356# vdd vdd sg13_lv_pmos ad=0.34p pd=2.68u as=0.36237p ps=2.605u w=1u l=0.13u
M235 SAR/sg13cmos5l_buf_1_59.A SAR/a_4425_7281# vss vss sg13_lv_nmos ad=0.2516p pd=2.16u as=0.1406p ps=1.12u w=0.74u l=0.13u
M236 vdd SAR/sg13cmos5l_inv_1_29.Y SAR/a_11771_5412# vdd sg13_lv_pmos ad=0.2128p pd=1.5u as=0.2128p ps=1.5u w=1.12u l=0.13u
M237 vdd SAR/a_18959_3215# SAR/a_19796_3436# vdd sg13_lv_pmos ad=0.2128p pd=1.5u as=0.3864p ps=2.93u w=1.12u l=0.13u
M238 vss SAR/sg13cmos5l_buf_1_24.X SAR/a_5704_1664# vss sg13_lv_nmos ad=0.14875p pd=1.16u as=0.187p ps=1.78u w=0.55u l=0.13u
M239 SAR/a_10433_4248# SAR/sg13cmos5l_dfrbp_1_10.Q SAR/sg13cmos5l_a22oi_1_1.B1 vss sg13_lv_nmos ad=0.1406p pd=1.12u as=0.1406p ps=1.12u w=0.74u l=0.13u
M240 SAR/a_2436_4325# SAR/a_2667_3911# SAR/a_2122_3868# vss sg13_lv_nmos ad=0.2373p pd=1.97u as=79.8f ps=0.8u w=0.42u l=0.13u