* NGSPICE file created from MSPHY9932.ext - technology: ihp-sg13cmos5l

.subckt sg13cmos5l_SecondaryProtection iovdd iovss core pad
X0 core iovdd dpantenna l=0.64u w=4.98u
X1 core pad iovss rppd l=2u w=1u
X2 iovss a_1032_164# dantenna l=3.1u w=0.64u
.ends

.subckt sg13cmos5l_DCPDiode guard cathode anode anode_uq0
X0 anode_uq0 cathode dpantenna l=1.26u w=27.78u
X1 anode cathode dpantenna l=1.26u w=27.78u
.ends

.subckt sg13cmos5l_Clamp_P20N0D iovss iovdd pad pad_uq0 pad_uq1 pad_uq2 pad_uq3 pad_uq4 pad_uq5 pad_uq6 pad_uq7 pad_uq8
X0 iovdd a_5044_476# pad_uq3 iovdd sg13_hv_pmos ad=2.1312p pd=7.3u as=3.9294p ps=7.84u w=6.66u l=0.6u
X1 pad_uq5 a_5044_476# iovdd iovdd sg13_hv_pmos ad=3.9294p pd=7.84u as=2.1312p ps=7.3u w=6.66u l=0.6u
X2 iovdd a_5044_476# pad_uq1 iovdd sg13_hv_pmos ad=2.1312p pd=7.3u as=3.9294p ps=7.84u w=6.66u l=0.6u
X3 pad_uq7 a_5044_476# iovdd iovdd sg13_hv_pmos ad=3.9294p pd=7.84u as=2.1312p ps=7.3u w=6.66u l=0.6u
X4 pad_uq6 a_5044_476# iovdd iovdd sg13_hv_pmos ad=3.9294p pd=7.84u as=2.1312p ps=7.3u w=6.66u l=0.6u
X5 iovdd a_5044_476# pad_uq2 iovdd sg13_hv_pmos ad=2.1312p pd=7.3u as=3.9294p ps=7.84u w=6.66u l=0.6u
X6 a_5044_476# iovdd iovdd rppd l=12.9u w=0.5u
X7 pad_uq6 a_5044_476# iovdd iovdd sg13_hv_pmos ad=3.9294p pd=7.84u as=2.1312p ps=7.3u w=6.66u l=0.6u
X8 iovdd a_5044_476# pad_uq6 iovdd sg13_hv_pmos ad=2.1312p pd=7.3u as=3.9294p ps=7.84u w=6.66u l=0.6u
X9 pad_uq2 a_5044_476# iovdd iovdd sg13_hv_pmos ad=3.9294p pd=7.84u as=2.1312p ps=7.3u w=6.66u l=0.6u
X10 iovdd a_5044_476# pad iovdd sg13_hv_pmos ad=2.1312p pd=7.3u as=3.9294p ps=7.84u w=6.66u l=0.6u
X11 iovdd a_5044_476# pad_uq6 iovdd sg13_hv_pmos ad=2.1312p pd=7.3u as=3.9294p ps=7.84u w=6.66u l=0.6u
X12 pad_uq2 a_5044_476# iovdd iovdd sg13_hv_pmos ad=3.9294p pd=7.84u as=2.1312p ps=7.3u w=6.66u l=0.6u
X13 iovdd a_5044_476# pad_uq5 iovdd sg13_hv_pmos ad=2.1312p pd=7.3u as=3.9294p ps=7.84u w=6.66u l=0.6u
X14 iovdd a_5044_476# pad_uq1 iovdd sg13_hv_pmos ad=2.1312p pd=7.3u as=3.9294p ps=7.84u w=6.66u l=0.6u
X15 pad_uq3 a_5044_476# iovdd iovdd sg13_hv_pmos ad=3.9294p pd=7.84u as=2.1312p ps=7.3u w=6.66u l=0.6u
X16 pad_uq1 a_5044_476# iovdd iovdd sg13_hv_pmos ad=3.9294p pd=7.84u as=2.1312p ps=7.3u w=6.66u l=0.6u
X17 iovdd a_5044_476# pad_uq7 iovdd sg13_hv_pmos ad=2.1312p pd=7.3u as=3.9294p ps=7.84u w=6.66u l=0.6u
X18 pad_uq0 a_5044_476# iovdd iovdd sg13_hv_pmos ad=3.9294p pd=7.84u as=2.1312p ps=7.3u w=6.66u l=0.6u
X19 iovdd a_5044_476# pad_uq3 iovdd sg13_hv_pmos ad=2.1312p pd=7.3u as=3.9294p ps=7.84u w=6.66u l=0.6u
X20 pad_uq7 a_5044_476# iovdd iovdd sg13_hv_pmos ad=3.9294p pd=7.84u as=2.1312p ps=7.3u w=6.66u l=0.6u
X21 iovdd a_5044_476# pad_uq0 iovdd sg13_hv_pmos ad=3.1302p pd=14.26u as=3.9294p ps=7.84u w=6.66u l=0.6u
X22 pad_uq8 a_5044_476# iovdd iovdd sg13_hv_pmos ad=3.9294p pd=7.84u as=3.1302p ps=14.26u w=6.66u l=0.6u
X23 pad_uq8 a_5044_476# iovdd iovdd sg13_hv_pmos ad=3.9294p pd=7.84u as=3.1302p ps=14.26u w=6.66u l=0.6u
X24 iovdd a_5044_476# pad iovdd sg13_hv_pmos ad=2.1312p pd=7.3u as=3.9294p ps=7.84u w=6.66u l=0.6u
X25 pad_uq4 a_5044_476# iovdd iovdd sg13_hv_pmos ad=3.9294p pd=7.84u as=2.1312p ps=7.3u w=6.66u l=0.6u
X26 iovdd a_5044_476# pad_uq7 iovdd sg13_hv_pmos ad=2.1312p pd=7.3u as=3.9294p ps=7.84u w=6.66u l=0.6u
X27 pad_uq3 a_5044_476# iovdd iovdd sg13_hv_pmos ad=3.9294p pd=7.84u as=2.1312p ps=7.3u w=6.66u l=0.6u
X28 iovdd a_5044_476# pad_uq8 iovdd sg13_hv_pmos ad=2.1312p pd=7.3u as=3.9294p ps=7.84u w=6.66u l=0.6u
X29 pad_uq5 a_5044_476# iovdd iovdd sg13_hv_pmos ad=3.9294p pd=7.84u as=2.1312p ps=7.3u w=6.66u l=0.6u
X30 pad_uq0 a_5044_476# iovdd iovdd sg13_hv_pmos ad=3.9294p pd=7.84u as=2.1312p ps=7.3u w=6.66u l=0.6u
X31 iovdd a_5044_476# pad_uq0 iovdd sg13_hv_pmos ad=3.1302p pd=14.26u as=3.9294p ps=7.84u w=6.66u l=0.6u
X32 pad a_5044_476# iovdd iovdd sg13_hv_pmos ad=3.9294p pd=7.84u as=2.1312p ps=7.3u w=6.66u l=0.6u
X33 iovdd a_5044_476# pad_uq8 iovdd sg13_hv_pmos ad=2.1312p pd=7.3u as=3.9294p ps=7.84u w=6.66u l=0.6u
X34 iovdd a_5044_476# pad_uq4 iovdd sg13_hv_pmos ad=2.1312p pd=7.3u as=3.9294p ps=7.84u w=6.66u l=0.6u
X35 iovdd a_5044_476# pad_uq2 iovdd sg13_hv_pmos ad=2.1312p pd=7.3u as=3.9294p ps=7.84u w=6.66u l=0.6u
X36 iovdd a_5044_476# pad_uq4 iovdd sg13_hv_pmos ad=2.1312p pd=7.3u as=3.9294p ps=7.84u w=6.66u l=0.6u
X37 pad_uq4 a_5044_476# iovdd iovdd sg13_hv_pmos ad=3.9294p pd=7.84u as=2.1312p ps=7.3u w=6.66u l=0.6u
X38 pad a_5044_476# iovdd iovdd sg13_hv_pmos ad=3.9294p pd=7.84u as=2.1312p ps=7.3u w=6.66u l=0.6u
X39 iovdd a_5044_476# pad_uq5 iovdd sg13_hv_pmos ad=2.1312p pd=7.3u as=3.9294p ps=7.84u w=6.66u l=0.6u
X40 pad_uq1 a_5044_476# iovdd iovdd sg13_hv_pmos ad=3.9294p pd=7.84u as=2.1312p ps=7.3u w=6.66u l=0.6u
.ends

.subckt sg13cmos5l_DCNDiode guard anode cathode cathode_uq0
X0 anode cathode_uq0 dantenna l=1.26u w=27.78u
X1 anode cathode dantenna l=1.26u w=27.78u
.ends

.subckt sg13cmos5l_Clamp_N20N0D iovss pad pad_uq0 pad_uq1 pad_uq2 pad_uq3 pad_uq4 pad_uq5 pad_uq6 pad_uq7 pad_uq8 w_n124_n124#
X0 pad_uq5 a_5044_476# iovss iovss sg13_hv_nmos ad=2.596p pd=5.58u as=1.408p ps=5.04u w=4.4u l=0.6u
X1 iovss a_5044_476# pad_uq1 iovss sg13_hv_nmos ad=1.408p pd=5.04u as=2.596p ps=5.58u w=4.4u l=0.6u
X2 pad_uq6 a_5044_476# iovss iovss sg13_hv_nmos ad=2.596p pd=5.58u as=1.408p ps=5.04u w=4.4u l=0.6u
X3 iovss a_5044_476# pad_uq2 iovss sg13_hv_nmos ad=1.408p pd=5.04u as=2.596p ps=5.58u w=4.4u l=0.6u
X4 a_5044_476# iovss iovss rppd l=3.54u w=0.5u
X5 iovss a_5044_476# pad_uq6 iovss sg13_hv_nmos ad=1.408p pd=5.04u as=2.596p ps=5.58u w=4.4u l=0.6u
X6 pad_uq2 a_5044_476# iovss iovss sg13_hv_nmos ad=2.596p pd=5.58u as=1.408p ps=5.04u w=4.4u l=0.6u
X7 pad_uq3 a_5044_476# iovss iovss sg13_hv_nmos ad=2.596p pd=5.58u as=1.408p ps=5.04u w=4.4u l=0.6u
X8 iovss a_5044_476# pad_uq7 iovss sg13_hv_nmos ad=1.408p pd=5.04u as=2.596p ps=5.58u w=4.4u l=0.6u
X9 pad_uq0 a_5044_476# iovss iovss sg13_hv_nmos ad=2.596p pd=5.58u as=1.408p ps=5.04u w=4.4u l=0.6u
X10 iovss a_5044_476# pad_uq3 iovss sg13_hv_nmos ad=1.408p pd=5.04u as=2.596p ps=5.58u w=4.4u l=0.6u
X11 pad_uq7 a_5044_476# iovss iovss sg13_hv_nmos ad=2.596p pd=5.58u as=1.408p ps=5.04u w=4.4u l=0.6u
X12 iovss a_5044_476# pad_uq0 iovss sg13_hv_nmos ad=2.068p pd=9.74u as=2.596p ps=5.58u w=4.4u l=0.6u
X13 pad_uq8 a_5044_476# iovss iovss sg13_hv_nmos ad=2.596p pd=5.58u as=2.068p ps=9.74u w=4.4u l=0.6u
X14 iovss a_5044_476# pad iovss sg13_hv_nmos ad=1.408p pd=5.04u as=2.596p ps=5.58u w=4.4u l=0.6u
X15 pad_uq4 a_5044_476# iovss iovss sg13_hv_nmos ad=2.596p pd=5.58u as=1.408p ps=5.04u w=4.4u l=0.6u
X16 iovss a_5044_476# pad_uq8 iovss sg13_hv_nmos ad=1.408p pd=5.04u as=2.596p ps=5.58u w=4.4u l=0.6u
X17 pad a_5044_476# iovss iovss sg13_hv_nmos ad=2.596p pd=5.58u as=1.408p ps=5.04u w=4.4u l=0.6u
X18 iovss a_5044_476# pad_uq4 iovss sg13_hv_nmos ad=1.408p pd=5.04u as=2.596p ps=5.58u w=4.4u l=0.6u
X19 iovss a_5044_476# pad_uq5 iovss sg13_hv_nmos ad=1.408p pd=5.04u as=2.596p ps=5.58u w=4.4u l=0.6u
X20 pad_uq1 a_5044_476# iovss iovss sg13_hv_nmos ad=2.596p pd=5.58u as=1.408p ps=5.04u w=4.4u l=0.6u
.ends

.subckt sg13cmos5l_IOPadAnalog iovss iovdd vdd pad padres iovdd_uq0 sg13cmos5l_DCNDiode_0/guard vss
Xsg13cmos5l_SecondaryProtection_0 iovdd vss padres pad sg13cmos5l_SecondaryProtection
Xsg13cmos5l_DCPDiode_0 vss iovdd_uq0 pad pad sg13cmos5l_DCPDiode
Xsg13cmos5l_Clamp_P20N0D_0 vss iovdd_uq0 pad pad pad pad pad pad pad pad pad pad sg13cmos5l_Clamp_P20N0D
Xsg13cmos5l_DCNDiode_0 sg13cmos5l_DCNDiode_0/guard vss pad pad sg13cmos5l_DCNDiode
Xsg13cmos5l_Clamp_N20N0D_0 vss pad pad pad pad pad pad pad pad pad pad sg13cmos5l_DCNDiode_0/guard sg13cmos5l_Clamp_N20N0D
.ends

.subckt sg13cmos5l_inv_1$2 Y A VSS VDD
M0 Y A VSS VSS sg13_lv_nmos ad=0.2516p pd=2.16u as=0.2516p ps=2.16u w=0.74u l=0.13u
M1 Y A VDD VDD sg13_lv_pmos ad=0.3808p pd=2.92u as=0.3808p ps=2.92u w=1.12u l=0.13u
.ends

.subckt sg13cmos5l_decap_4$2 VDD VSS
M0 VDD VSS VDD VDD sg13_lv_pmos ad=0.34p pd=2.68u as=2.4331p ps=11.58u w=1u l=1u
M1 VSS VDD VSS VSS sg13_lv_nmos ad=0.1428p pd=1.52u as=1.84612p ps=9.32u w=0.42u l=1u
.ends

.subckt sg13cmos5l_nor2_1$1 A VDD Y VSS B
M0 Y A VSS VSS sg13_lv_nmos ad=0.1406p pd=1.12u as=0.2516p ps=2.16u w=0.74u l=0.13u
M1 VSS B Y VSS sg13_lv_nmos ad=0.2516p pd=2.16u as=0.1406p ps=1.12u w=0.74u l=0.13u
M2 a_170_412# A VDD VDD sg13_lv_pmos ad=0.1176p pd=1.33u as=0.4032p ps=2.96u w=1.12u l=0.13u
M3 Y B a_170_412# VDD sg13_lv_pmos ad=0.3808p pd=2.92u as=0.1176p ps=1.33u w=1.12u l=0.13u
.ends

.subckt sg13cmos5l_a21oi_1$1 VDD VSS A2 A1 B1 Y
M0 Y B1 VSS VSS sg13_lv_nmos ad=0.1406p pd=1.12u as=0.2516p ps=2.16u w=0.74u l=0.13u
M1 a_257_140# A1 Y VSS sg13_lv_nmos ad=0.1406p pd=1.12u as=0.1406p ps=1.12u w=0.74u l=0.13u
M2 VSS A2 a_257_140# VSS sg13_lv_nmos ad=0.2516p pd=2.16u as=0.1406p ps=1.12u w=0.74u l=0.13u
M3 a_155_412# B1 Y VDD sg13_lv_pmos ad=0.2128p pd=1.5u as=0.3808p ps=2.92u w=1.12u l=0.13u
M4 VDD A1 a_155_412# VDD sg13_lv_pmos ad=0.2128p pd=1.5u as=0.2128p ps=1.5u w=1.12u l=0.13u
M5 a_155_412# A2 VDD VDD sg13_lv_pmos ad=0.3808p pd=2.92u as=0.2128p ps=1.5u w=1.12u l=0.13u
.ends

.subckt sg13cmos5l_nand2_1$1 Y VDD A VSS B
M0 a_154_118# B VSS VSS sg13_lv_nmos ad=0.1406p pd=1.12u as=0.2516p ps=2.16u w=0.74u l=0.13u
M1 Y A a_154_118# VSS sg13_lv_nmos ad=0.2516p pd=2.16u as=0.1406p ps=1.12u w=0.74u l=0.13u
M2 Y B VDD VDD sg13_lv_pmos ad=0.2128p pd=1.5u as=0.3808p ps=2.92u w=1.12u l=0.13u
M3 VDD A Y VDD sg13_lv_pmos ad=0.3808p pd=2.92u as=0.2128p ps=1.5u w=1.12u l=0.13u
.ends

.subckt sg13cmos5l_dfrbpq_1 CLK VSS D Q VDD RESET_B
M0 a_550_127# RESET_B VSS VSS sg13_lv_nmos ad=37.8f pd=0.6u as=0.1701p ps=1.65u w=0.42u l=0.13u
M1 a_298_337# a_741_93# a_681_505# VDD sg13_lv_pmos ad=79.8f pd=0.8u as=63f ps=0.72u w=0.42u l=0.13u
M2 a_1840_334# a_1583_191# a_2002_114# VSS sg13_lv_nmos ad=0.1428p pd=1.52u as=37.8f ps=0.6u w=0.42u l=0.13u
M3 a_38_114# a_843_236# a_298_337# VDD sg13_lv_pmos ad=0.1428p pd=1.52u as=79.8f ps=0.8u w=0.42u l=0.13u
M4 a_741_93# CLK VSS VSS sg13_lv_nmos ad=0.2516p pd=2.16u as=2.26778p ps=14.665u w=0.74u l=0.13u
M5 a_38_114# D VDD VDD sg13_lv_pmos ad=79.8f pd=0.8u as=0.1428p ps=1.52u w=0.42u l=0.13u
M6 a_741_93# CLK VDD VDD sg13_lv_pmos ad=0.4088p pd=2.97u as=1.12285p ps=7.26u w=1.12u l=0.13u
M7 VSS a_741_93# a_843_236# VSS sg13_lv_nmos ad=2.26778p pd=14.665u as=0.2516p ps=2.16u w=0.74u l=0.13u
M8 VSS a_1840_334# a_1489_191# VSS sg13_lv_nmos ad=79.8f pd=0.8u as=0.1428p ps=1.52u w=0.42u l=0.13u
M9 VDD RESET_B a_38_114# VDD sg13_lv_pmos ad=0.36237p pd=2.605u as=79.8f ps=0.8u w=0.42u l=0.13u
M10 a_324_432# a_298_337# VSS VSS sg13_lv_nmos ad=0.2516p pd=2.16u as=0.1626p ps=1.415u w=0.74u l=0.13u
M11 VDD a_741_93# a_843_236# VDD sg13_lv_pmos ad=1.12285p pd=7.26u as=0.3864p ps=2.93u w=1.12u l=0.13u
M12 a_2002_114# RESET_B VSS VSS sg13_lv_nmos ad=37.8f pd=0.6u as=79.8f ps=0.8u w=0.42u l=0.13u
M13 VDD a_1583_191# a_2250_412# VDD sg13_lv_pmos ad=0.2128p pd=1.5u as=0.3864p ps=2.93u w=1.12u l=0.13u
M14 Q a_2250_412# VDD VDD sg13_lv_pmos ad=0.3808p pd=2.92u as=0.2128p ps=1.5u w=1.12u l=0.13u
M15 a_132_114# D a_38_114# VSS sg13_lv_nmos ad=60.89999f pd=0.71u as=0.1428p ps=1.52u w=0.42u l=0.13u
M16 a_1785_429# a_843_236# a_1583_191# VDD sg13_lv_pmos ad=93.45f pd=0.865u as=0.2048p ps=1.63u w=0.42u l=0.13u
M17 VDD a_1583_191# a_1840_334# VDD sg13_lv_pmos ad=1.12285p pd=7.26u as=79.8f ps=0.8u w=0.42u l=0.13u
M18 a_1583_191# a_741_93# a_324_432# VDD sg13_lv_pmos ad=0.2048p pd=1.63u as=0.34p ps=2.68u w=1u l=0.13u
M19 a_1583_191# a_741_93# a_1489_191# VSS sg13_lv_nmos ad=0.12665p pd=1.145u as=0.1428p ps=1.52u w=0.42u l=0.13u
M20 VDD a_1840_334# a_1785_429# VDD sg13_lv_pmos ad=1.12285p pd=7.26u as=93.45f ps=0.865u w=0.42u l=0.13u
M21 a_1840_334# RESET_B VDD VDD sg13_lv_pmos ad=79.8f pd=0.8u as=1.12285p ps=7.26u w=0.42u l=0.13u
M22 a_324_432# a_843_236# a_1583_191# VSS sg13_lv_nmos ad=0.3473p pd=2.71u as=0.12665p ps=1.145u w=0.74u l=0.13u
M23 a_298_337# a_741_93# a_38_114# VSS sg13_lv_nmos ad=79.8f pd=0.8u as=0.1296p ps=1.52u w=0.42u l=0.13u
M24 a_612_127# a_324_432# a_550_127# VSS sg13_lv_nmos ad=0.1428p pd=1.52u as=37.8f ps=0.6u w=0.42u l=0.13u
M25 a_681_505# a_324_432# VDD VDD sg13_lv_pmos ad=63f pd=0.72u as=0.1563p ps=1.22u w=0.42u l=0.13u
M26 a_612_127# a_843_236# a_298_337# VSS sg13_lv_nmos ad=0.2373p pd=1.97u as=79.8f ps=0.8u w=0.42u l=0.13u
M27 VSS a_1583_191# a_2250_412# VSS sg13_lv_nmos ad=0.1406p pd=1.12u as=0.2516p ps=2.16u w=0.74u l=0.13u
M28 a_324_432# a_298_337# VDD VDD sg13_lv_pmos ad=0.34p pd=2.68u as=0.36237p ps=2.605u w=1u l=0.13u
M29 Q a_2250_412# VSS VSS sg13_lv_nmos ad=0.2516p pd=2.16u as=0.1406p ps=1.12u w=0.74u l=0.13u
M30 VDD RESET_B a_298_337# VDD sg13_lv_pmos ad=0.1563p pd=1.22u as=0.147p ps=1.54u w=0.42u l=0.13u
M31 VSS RESET_B a_132_114# VSS sg13_lv_nmos ad=0.1626p pd=1.415u as=60.89999f ps=0.71u w=0.42u l=0.13u
.ends

.subckt sg13cmos5l_nand3_1 VDD Y B C A VSS
M0 Y C VDD VDD sg13_lv_pmos ad=0.2128p pd=1.5u as=0.3808p ps=2.92u w=1.12u l=0.13u
M1 VDD B Y VDD sg13_lv_pmos ad=0.2128p pd=1.5u as=0.2128p ps=1.5u w=1.12u l=0.13u
M2 Y A VDD VDD sg13_lv_pmos ad=0.3808p pd=2.92u as=0.2128p ps=1.5u w=1.12u l=0.13u
M3 a_146_122# C VSS VSS sg13_lv_nmos ad=0.1406p pd=1.12u as=0.2886p ps=2.26u w=0.74u l=0.13u
M4 a_248_122# B a_146_122# VSS sg13_lv_nmos ad=0.1406p pd=1.12u as=0.1406p ps=1.12u w=0.74u l=0.13u
M5 Y A a_248_122# VSS sg13_lv_nmos ad=0.2516p pd=2.16u as=0.1406p ps=1.12u w=0.74u l=0.13u
.ends

.subckt sg13cmos5l_o21ai_1$1 VSS VDD Y B1 A2 A1
M0 VSS A1 a_22_110# VSS sg13_lv_nmos ad=0.1406p pd=1.12u as=0.2516p ps=2.16u w=0.74u l=0.15u
M1 a_120_432# A1 VDD VDD sg13_lv_pmos ad=0.2128p pd=1.5u as=0.3808p ps=2.92u w=1.12u l=0.15u
M2 a_22_110# A2 VSS VSS sg13_lv_nmos ad=0.1406p pd=1.12u as=0.1406p ps=1.12u w=0.74u l=0.15u
M3 Y B1 a_22_110# VSS sg13_lv_nmos ad=0.2516p pd=2.16u as=0.1406p ps=1.12u w=0.74u l=0.15u
M4 Y A2 a_120_432# VDD sg13_lv_pmos ad=0.2128p pd=1.5u as=0.2128p ps=1.5u w=1.12u l=0.15u
M5 VDD B1 Y VDD sg13_lv_pmos ad=0.3808p pd=2.92u as=0.2128p ps=1.5u w=1.12u l=0.15u
.ends

.subckt sg13cmos5l_and2_1 X VSS VDD B A
M0 X a_45_160# VDD VDD sg13_lv_pmos ad=0.3808p pd=2.92u as=0.1918p ps=1.5u w=1.12u l=0.13u
M1 X a_45_160# VSS VSS sg13_lv_nmos ad=0.2516p pd=2.16u as=0.1331p ps=1.12u w=0.74u l=0.13u
M2 a_45_160# A VDD VDD sg13_lv_pmos ad=0.1596p pd=1.22u as=0.2856p ps=2.36u w=0.84u l=0.13u
M3 VDD B a_45_160# VDD sg13_lv_pmos ad=0.1918p pd=1.5u as=0.1596p ps=1.22u w=0.84u l=0.13u
M4 a_139_160# A a_45_160# VSS sg13_lv_nmos ad=0.1216p pd=1.02u as=0.2176p ps=1.96u w=0.64u l=0.13u
M5 VSS B a_139_160# VSS sg13_lv_nmos ad=0.1331p pd=1.12u as=0.1216p ps=1.02u w=0.64u l=0.13u
.ends

.subckt sg13cmos5l_nor2b_1$1 A B_N VDD Y VSS
M0 VDD B_N a_46_156# VDD sg13_lv_pmos ad=0.2618p pd=1.63u as=0.2856p ps=2.36u w=0.84u l=0.13u
M1 VSS B_N a_46_156# VSS sg13_lv_nmos ad=0.17255p pd=1.25u as=0.187p ps=1.78u w=0.55u l=0.13u
M2 Y a_46_156# VSS VSS sg13_lv_nmos ad=0.1406p pd=1.12u as=0.17255p ps=1.25u w=0.74u l=0.13u
M3 VSS A Y VSS sg13_lv_nmos ad=0.2516p pd=2.16u as=0.1406p ps=1.12u w=0.74u l=0.13u
M4 a_268_412# a_46_156# VDD VDD sg13_lv_pmos ad=0.1176p pd=1.33u as=0.2618p ps=1.63u w=1.12u l=0.13u
M5 Y A a_268_412# VDD sg13_lv_pmos ad=0.3808p pd=2.92u as=0.1176p ps=1.33u w=1.12u l=0.13u
.ends

.subckt sg13cmos5l_a21o_1 B1 X VDD VSS A1 A2
M0 VDD A1 a_358_436# VDD sg13_lv_pmos ad=0.19p pd=1.38u as=0.2125p ps=1.425u w=1u l=0.13u
M1 VSS A2 a_494_160# VSS sg13_lv_nmos ad=0.2176p pd=1.96u as=81.6f ps=0.895u w=0.64u l=0.13u
M2 a_358_436# A2 VDD VDD sg13_lv_pmos ad=0.34p pd=2.68u as=0.19p ps=1.38u w=1u l=0.13u
M3 a_115_308# B1 VSS VSS sg13_lv_nmos ad=0.1216p pd=1.02u as=0.15745p ps=1.175u w=0.64u l=0.13u
M4 a_494_160# A1 a_115_308# VSS sg13_lv_nmos ad=81.6f pd=0.895u as=0.1216p ps=1.02u w=0.64u l=0.13u
M5 a_358_436# B1 a_115_308# VDD sg13_lv_pmos ad=0.2125p pd=1.425u as=0.35p ps=2.7u w=1u l=0.13u
M6 VDD a_115_308# X VDD sg13_lv_pmos ad=0.3808p pd=2.92u as=0.3808p ps=2.92u w=1.12u l=0.13u
M7 VSS a_115_308# X VSS sg13_lv_nmos ad=0.15745p pd=1.175u as=0.2351p ps=2.16u w=0.74u l=0.13u
.ends

.subckt sg13cmos5l_and3_1$1 X B VDD VSS C A
M0 a_170_160# A a_76_160# VSS sg13_lv_nmos ad=0.1216p pd=1.02u as=0.2176p ps=1.96u w=0.64u l=0.13u
M1 a_272_160# B a_170_160# VSS sg13_lv_nmos ad=0.1216p pd=1.02u as=0.1216p ps=1.02u w=0.64u l=0.13u
M2 VSS C a_272_160# VSS sg13_lv_nmos ad=0.1371p pd=1.12u as=0.1216p ps=1.02u w=0.64u l=0.13u
M3 VDD A a_76_160# VDD sg13_lv_pmos ad=0.1596p pd=1.22u as=0.2856p ps=2.36u w=0.84u l=0.13u
M4 a_76_160# B VDD VDD sg13_lv_pmos ad=0.1596p pd=1.22u as=0.1596p ps=1.22u w=0.84u l=0.13u
M5 VDD C a_76_160# VDD sg13_lv_pmos ad=0.36195p pd=1.84u as=0.1596p ps=1.22u w=0.84u l=0.13u
M6 X a_76_160# VDD VDD sg13_lv_pmos ad=0.3808p pd=2.92u as=0.36195p ps=1.84u w=1.12u l=0.13u
M7 X a_76_160# VSS VSS sg13_lv_nmos ad=0.2516p pd=2.16u as=0.1371p ps=1.12u w=0.74u l=0.13u
.ends

.subckt sg13cmos5l_buf_1$1 X A VSS VDD
M0 X a_40_152# VSS VSS sg13_lv_nmos ad=0.2886p pd=2.26u as=0.14875p ps=1.16u w=0.74u l=0.13u
M1 X a_40_152# VDD VDD sg13_lv_pmos ad=0.42p pd=2.99u as=0.2114p ps=1.54u w=1.12u l=0.13u
M2 VDD A a_40_152# VDD sg13_lv_pmos ad=0.2114p pd=1.54u as=0.2856p ps=2.36u w=0.84u l=0.13u
M3 VSS A a_40_152# VSS sg13_lv_nmos ad=0.14875p pd=1.16u as=0.187p ps=1.78u w=0.55u l=0.13u
.ends

.subckt sg13cmos5l_xnor2_1$1 Y B VDD A VSS
M0 a_192_429# A VDD VDD sg13_lv_pmos ad=0.1596p pd=1.22u as=0.4536p ps=2.76u w=0.84u l=0.13u
M1 VSS A a_341_118# VSS sg13_lv_nmos ad=0.1898p pd=1.36u as=0.2516p ps=2.16u w=0.74u l=0.13u
M2 VDD B a_192_429# VDD sg13_lv_pmos ad=0.2891p pd=1.695u as=0.1596p ps=1.22u w=0.84u l=0.13u
M3 a_435_412# A VDD VDD sg13_lv_pmos ad=0.1428p pd=1.375u as=0.2891p ps=1.695u w=1.12u l=0.13u
M4 a_155_160# A VSS VSS sg13_lv_nmos ad=78.39999f pd=0.885u as=0.2272p ps=1.99u w=0.64u l=0.13u
M5 a_341_118# B VSS VSS sg13_lv_nmos ad=0.1406p pd=1.12u as=0.1898p ps=1.36u w=0.74u l=0.13u
M6 Y a_192_429# a_341_118# VSS sg13_lv_nmos ad=0.2516p pd=2.16u as=0.1406p ps=1.12u w=0.74u l=0.13u
M7 VDD a_192_429# Y VDD sg13_lv_pmos ad=0.3808p pd=2.92u as=0.2408p ps=1.55u w=1.12u l=0.13u
M8 Y B a_435_412# VDD sg13_lv_pmos ad=0.2408p pd=1.55u as=0.1428p ps=1.375u w=1.12u l=0.13u
M9 a_192_429# B a_155_160# VSS sg13_lv_nmos ad=0.2176p pd=1.96u as=78.39999f ps=0.885u w=0.64u l=0.13u
.ends

.subckt sg13cmos5l_or3_1 VDD VSS C B A X
M0 VSS A a_73_118# VSS sg13_lv_nmos ad=0.13395p pd=1.12u as=0.198p ps=1.27u w=0.55u l=0.13u
M1 X a_73_118# VSS VSS sg13_lv_nmos ad=0.2516p pd=2.16u as=0.13395p ps=1.12u w=0.74u l=0.13u
M2 VDD A a_269_412# VDD sg13_lv_pmos ad=0.3822p pd=1.84u as=0.1575p ps=1.315u w=1u l=0.13u
M3 VSS C a_73_118# VSS sg13_lv_nmos ad=0.1045p pd=0.93u as=0.187p ps=1.78u w=0.55u l=0.13u
M4 a_167_412# C a_73_118# VDD sg13_lv_pmos ad=0.19p pd=1.38u as=0.34p ps=2.68u w=1u l=0.13u
M5 a_73_118# B VSS VSS sg13_lv_nmos ad=0.198p pd=1.27u as=0.1045p ps=0.93u w=0.55u l=0.13u
M6 X a_73_118# VDD VDD sg13_lv_pmos ad=0.3808p pd=2.92u as=0.3822p ps=1.84u w=1.12u l=0.13u
M7 a_269_412# B a_167_412# VDD sg13_lv_pmos ad=0.1575p pd=1.315u as=0.19p ps=1.38u w=1u l=0.13u
.ends

.subckt sg13cmos5l_nand2b_1$1 VSS A_N Y B VDD
M0 VDD a_27_156# Y VDD sg13_lv_pmos ad=0.3808p pd=2.92u as=0.2128p ps=1.5u w=1.12u l=0.13u
M1 a_229_118# B VSS VSS sg13_lv_nmos ad=0.1406p pd=1.12u as=0.14505p ps=1.15u w=0.74u l=0.13u
M2 VDD A_N a_27_156# VDD sg13_lv_pmos ad=0.2198p pd=1.53u as=0.2856p ps=2.36u w=0.84u l=0.13u
M3 Y B VDD VDD sg13_lv_pmos ad=0.2128p pd=1.5u as=0.2198p ps=1.53u w=1.12u l=0.13u
M4 Y a_27_156# a_229_118# VSS sg13_lv_nmos ad=0.333p pd=2.38u as=0.1406p ps=1.12u w=0.74u l=0.13u
M5 VSS A_N a_27_156# VSS sg13_lv_nmos ad=0.14505p pd=1.15u as=0.187p ps=1.78u w=0.55u l=0.13u
.ends

.subckt sg13cmos5l_nor3_1 A Y B C VDD VSS
M0 Y A VSS VSS sg13_lv_nmos ad=0.1694p pd=1.21u as=0.2618p ps=2.22u w=0.77u l=0.13u
M1 a_165_412# A VDD VDD sg13_lv_pmos ad=0.2464p pd=1.56u as=0.3808p ps=2.92u w=1.12u l=0.13u
M2 VSS B Y VSS sg13_lv_nmos ad=0.1463p pd=1.15u as=0.1694p ps=1.21u w=0.77u l=0.13u
M3 Y C VSS VSS sg13_lv_nmos ad=0.2618p pd=2.22u as=0.1463p ps=1.15u w=0.77u l=0.13u
M4 a_279_412# B a_165_412# VDD sg13_lv_pmos ad=0.2128p pd=1.5u as=0.2464p ps=1.56u w=1.12u l=0.13u
M5 Y C a_279_412# VDD sg13_lv_pmos ad=0.3808p pd=2.92u as=0.2128p ps=1.5u w=1.12u l=0.13u
.ends

.subckt sg13cmos5l_xor2_1 X VDD B A VSS
M0 VSS a_209_168# X VSS sg13_lv_nmos ad=0.3108p pd=2.32u as=0.1628p ps=1.18u w=0.74u l=0.13u
M1 VDD A a_380_412# VDD sg13_lv_pmos ad=0.2128p pd=1.5u as=0.3808p ps=2.92u w=1.12u l=0.13u
M2 a_380_412# B VDD VDD sg13_lv_pmos ad=0.2128p pd=1.5u as=0.2128p ps=1.5u w=1.12u l=0.13u
M3 X a_209_168# a_380_412# VDD sg13_lv_pmos ad=0.3808p pd=2.92u as=0.2128p ps=1.5u w=1.12u l=0.13u
M4 a_177_436# A VDD VDD sg13_lv_pmos ad=0.1225p pd=1.245u as=0.36p ps=2.72u w=1u l=0.13u
M5 a_209_168# A VSS VSS sg13_lv_nmos ad=0.17462p pd=1.185u as=0.374p ps=2.46u w=0.55u l=0.13u
M6 a_209_168# B a_177_436# VDD sg13_lv_pmos ad=0.34p pd=2.68u as=0.1225p ps=1.245u w=1u l=0.13u
M7 VSS B a_209_168# VSS sg13_lv_nmos ad=0.15245p pd=1.17u as=0.17462p ps=1.185u w=0.55u l=0.13u
M8 a_474_130# A VSS VSS sg13_lv_nmos ad=88.8f pd=0.98u as=0.15245p ps=1.17u w=0.74u l=0.13u
M9 X B a_474_130# VSS sg13_lv_nmos ad=0.1628p pd=1.18u as=88.8f ps=0.98u w=0.74u l=0.13u
.ends

.subckt sg13cmos5l_tiehi$1 L_HI VDD VSS
M0 L_HI a_222_366# VDD VDD sg13_lv_pmos ad=0.3927p pd=2.99u as=0.76727p ps=3.885u w=1.155u l=0.13u
M1 VDD a_23_195# a_23_429# VDD sg13_lv_pmos ad=0.76727p pd=3.885u as=0.2442p ps=2.06u w=0.66u l=0.13u
M2 a_222_366# a_23_429# VSS VSS sg13_lv_nmos ad=0.27427p pd=2.28u as=0.49637p ps=3.565u w=0.795u l=0.13u
M3 VSS a_23_195# a_23_195# VSS sg13_lv_nmos ad=0.49637p pd=3.565u as=0.111p ps=1.34u w=0.3u l=0.13u
.ends

.subckt sg13cmos5l_or2_1$2 A VSS B X VDD
M0 a_142_492# B a_48_492# VDD sg13_lv_pmos ad=0.1596p pd=1.22u as=0.2856p ps=2.36u w=0.84u l=0.13u
M1 VDD A a_142_492# VDD sg13_lv_pmos ad=0.2226p pd=1.535u as=0.1596p ps=1.22u w=0.84u l=0.13u
M2 X a_48_492# VSS VSS sg13_lv_nmos ad=0.2516p pd=2.16u as=0.1469p ps=1.155u w=0.74u l=0.13u
M3 VSS A a_48_492# VSS sg13_lv_nmos ad=0.1469p pd=1.155u as=0.1045p ps=0.93u w=0.55u l=0.13u
M4 a_48_492# B VSS VSS sg13_lv_nmos ad=0.1045p pd=0.93u as=0.187p ps=1.78u w=0.55u l=0.13u
M5 X a_48_492# VDD VDD sg13_lv_pmos ad=0.3976p pd=2.95u as=0.2226p ps=1.535u w=1.12u l=0.13u
.ends

.subckt sg13cmos5l_decap_8$1 VDD VSS
M0 VSS VDD VSS VSS sg13_lv_nmos ad=0.1428p pd=1.52u as=3.1269p ps=15.58u w=0.42u l=1u
M1 VDD VSS VDD VDD sg13_lv_pmos ad=0.19p pd=1.38u as=4.13118p ps=17.18u w=1u l=1u
M2 VSS VDD VSS VSS sg13_lv_nmos ad=79.8f pd=0.8u as=0 ps=0 w=0.42u l=1u
M3 VDD VSS VDD VDD sg13_lv_pmos ad=0.34p pd=2.68u as=0 ps=0 w=1u l=1u
.ends

.subckt sg13cmos5l_antennanp A VSS VDD
X0 A VDD dpantenna l=1.34u w=1.05u
X1 VSS a_70_98# dantenna l=0.78u w=0.78u
.ends

.subckt sg13cmos5l_mux2_1 A1 X S VDD VSS A0
M0 a_559_412# A1 a_382_118# VDD sg13_lv_pmos ad=0.2975p pd=1.595u as=0.2225p ps=1.445u w=1u l=0.13u
M1 VDD S a_59_156# VDD sg13_lv_pmos ad=0.253p pd=1.53u as=0.2856p ps=2.36u w=0.84u l=0.13u
M2 VSS S a_59_156# VSS sg13_lv_nmos ad=0.18945p pd=1.27u as=0.187p ps=1.78u w=0.55u l=0.13u
M3 X a_382_118# VSS VSS sg13_lv_nmos ad=0.4033p pd=2.57u as=0.148p ps=1.14u w=0.74u l=0.13u
M4 X a_382_118# VDD VDD sg13_lv_pmos ad=0.6048p pd=3.32u as=0.2198p ps=1.52u w=1.12u l=0.13u
M5 a_285_118# S VSS VSS sg13_lv_nmos ad=0.13135p pd=1.095u as=0.18945p ps=1.27u w=0.74u l=0.13u
M6 a_285_412# S VDD VDD sg13_lv_pmos ad=0.3325p pd=1.665u as=0.253p ps=1.53u w=1u l=0.13u
M7 VSS a_59_156# a_496_118# VSS sg13_lv_nmos ad=0.148p pd=1.14u as=0.3367p ps=1.65u w=0.74u l=0.13u
M8 VDD a_59_156# a_559_412# VDD sg13_lv_pmos ad=0.2198p pd=1.52u as=0.2975p ps=1.595u w=1u l=0.13u
M9 a_382_118# A1 a_285_118# VSS sg13_lv_nmos ad=0.1628p pd=1.18u as=0.13135p ps=1.095u w=0.74u l=0.13u
M10 a_496_118# A0 a_382_118# VSS sg13_lv_nmos ad=0.3367p pd=1.65u as=0.1628p ps=1.18u w=0.74u l=0.13u
M11 a_382_118# A0 a_285_412# VDD sg13_lv_pmos ad=0.2225p pd=1.445u as=0.3325p ps=1.665u w=1u l=0.13u
.ends

.subckt sg13cmos5l_a22oi_1$1 Y A2 VDD B1 A1 VSS B2
M0 a_398_96# A1 Y VSS sg13_lv_nmos ad=96.2f pd=1u as=0.2664p ps=1.46u w=0.74u l=0.13u
M1 Y B2 a_127_96# VSS sg13_lv_nmos ad=0.2664p pd=1.46u as=0.13875p ps=1.115u w=0.74u l=0.13u
M2 VDD A2 a_127_436# VDD sg13_lv_pmos ad=0.3808p pd=2.92u as=0.2744p ps=1.61u w=1.12u l=0.13u
M3 Y B1 a_127_436# VDD sg13_lv_pmos ad=0.2128p pd=1.5u as=0.2716p ps=1.605u w=1.12u l=0.13u
M4 a_127_436# B2 Y VDD sg13_lv_pmos ad=0.2744p pd=1.61u as=0.2128p ps=1.5u w=1.12u l=0.13u
M5 a_127_96# B1 VSS VSS sg13_lv_nmos ad=0.13875p pd=1.115u as=0.2553p ps=2.17u w=0.74u l=0.13u
M6 a_127_436# A1 VDD VDD sg13_lv_pmos ad=0.2716p pd=1.605u as=0.3808p ps=2.92u w=1.12u l=0.13u
M7 VSS A2 a_398_96# VSS sg13_lv_nmos ad=0.2516p pd=2.16u as=96.2f ps=1u w=0.74u l=0.13u
.ends

.subckt sg13cmos5l_buf_8$1 X VDD A VSS
M0 VSS A a_27_118# VSS sg13_lv_nmos w=0.74u l=0.13u m=2
M2 VDD A a_27_118# VDD sg13_lv_pmos ad=0.2128p pd=1.5u as=0.2128p ps=1.5u w=1.12u l=0.13u
M3 X a_27_118# VSS VSS sg13_lv_nmos ad=0.1406p pd=1.12u as=0.1406p ps=1.12u w=0.74u l=0.13u
M4 VDD A a_27_118# VDD sg13_lv_pmos ad=0.2128p pd=1.5u as=0.3808p ps=2.92u w=1.12u l=0.13u
M5 X a_27_118# VDD VDD sg13_lv_pmos ad=0.2128p pd=1.5u as=0.2128p ps=1.5u w=1.12u l=0.13u
M6 VSS a_27_118# X VSS sg13_lv_nmos ad=0.1406p pd=1.12u as=0.1406p ps=1.12u w=0.74u l=0.13u
M7 VDD a_27_118# X VDD sg13_lv_pmos ad=0.2128p pd=1.5u as=0.2128p ps=1.5u w=1.12u l=0.13u
M8 X a_27_118# VSS VSS sg13_lv_nmos ad=0.1406p pd=1.12u as=0.1406p ps=1.12u w=0.74u l=0.13u
M9 X a_27_118# VDD VDD sg13_lv_pmos ad=0.2128p pd=1.5u as=0.2128p ps=1.5u w=1.12u l=0.13u
M10 VSS a_27_118# X VSS sg13_lv_nmos ad=0.1406p pd=1.12u as=0.1406p ps=1.12u w=0.74u l=0.13u
M11 X a_27_118# VSS VSS sg13_lv_nmos ad=0.1406p pd=1.12u as=0.1406p ps=1.12u w=0.74u l=0.13u
M12 VDD a_27_118# X VDD sg13_lv_pmos ad=0.2128p pd=1.5u as=0.2128p ps=1.5u w=1.12u l=0.13u
M13 X a_27_118# VDD VDD sg13_lv_pmos ad=0.2128p pd=1.5u as=0.2128p ps=1.5u w=1.12u l=0.13u
M14 VSS a_27_118# X VSS sg13_lv_nmos ad=0.1406p pd=1.12u as=0.1406p ps=1.12u w=0.74u l=0.13u
M15 VDD a_27_118# X VDD sg13_lv_pmos ad=0.2128p pd=1.5u as=0.2128p ps=1.5u w=1.12u l=0.13u
M16 X a_27_118# VSS VSS sg13_lv_nmos ad=0.1406p pd=1.12u as=0.1406p ps=1.12u w=0.74u l=0.13u
M17 VSS a_27_118# X VSS sg13_lv_nmos ad=0.2516p pd=2.16u as=0.1406p ps=1.12u w=0.74u l=0.13u
M18 X a_27_118# VDD VDD sg13_lv_pmos ad=0.2128p pd=1.5u as=0.2128p ps=1.5u w=1.12u l=0.13u
M19 VDD a_27_118# X VDD sg13_lv_pmos ad=0.3864p pd=2.93u as=0.2128p ps=1.5u w=1.12u l=0.13u
M20 a_27_118# A VSS VSS sg13_lv_nmos ad=0.1406p pd=1.12u as=0.1406p ps=1.12u w=0.74u l=0.13u
M21 a_27_118# A VDD VDD sg13_lv_pmos ad=0.2128p pd=1.5u as=0.2128p ps=1.5u w=1.12u l=0.13u
.ends

.subckt sg13cmos5l_nor4_1 VSS VDD B C Y A D
M0 a_354_412# C a_252_412# VDD sg13_lv_pmos ad=0.2128p pd=1.5u as=0.2128p ps=1.5u w=1.12u l=0.13u
M1 Y D a_354_412# VDD sg13_lv_pmos ad=0.4368p pd=3.02u as=0.2128p ps=1.5u w=1.12u l=0.13u
M2 Y A VSS VSS sg13_lv_nmos ad=0.1406p pd=1.12u as=0.2516p ps=2.16u w=0.74u l=0.13u
M3 a_150_412# A VDD VDD sg13_lv_pmos ad=0.2128p pd=1.5u as=0.3808p ps=2.92u w=1.12u l=0.13u
M4 VSS B Y VSS sg13_lv_nmos ad=0.1406p pd=1.12u as=0.1406p ps=1.12u w=0.74u l=0.13u
M5 a_252_412# B a_150_412# VDD sg13_lv_pmos ad=0.2128p pd=1.5u as=0.2128p ps=1.5u w=1.12u l=0.13u
M6 Y C VSS VSS sg13_lv_nmos ad=0.1406p pd=1.12u as=0.1406p ps=1.12u w=0.74u l=0.13u
M7 VSS D Y VSS sg13_lv_nmos ad=0.23757p pd=2.16u as=0.1406p ps=1.12u w=0.74u l=0.13u
.ends

.subckt sg13cmos5l_a221oi_1$1 C1 Y B2 B1 A2 VDD A1 VSS
M0 a_550_140# A1 Y VSS sg13_lv_nmos ad=0.1406p pd=1.12u as=0.2516p ps=2.16u w=0.74u l=0.13u
M1 VSS A2 a_550_140# VSS sg13_lv_nmos ad=0.2516p pd=2.16u as=0.1406p ps=1.12u w=0.74u l=0.13u
M2 a_142_412# C1 Y VDD sg13_lv_pmos ad=0.2128p pd=1.5u as=0.3808p ps=2.92u w=1.12u l=0.13u
M3 a_244_412# B2 a_142_412# VDD sg13_lv_pmos ad=0.2128p pd=1.5u as=0.2128p ps=1.5u w=1.12u l=0.13u
M4 a_142_412# B1 a_244_412# VDD sg13_lv_pmos ad=0.3808p pd=2.92u as=0.2128p ps=1.5u w=1.12u l=0.13u
M5 a_244_412# A1 VDD VDD sg13_lv_pmos ad=0.2128p pd=1.5u as=0.3808p ps=2.92u w=1.12u l=0.13u
M6 VDD A2 a_244_412# VDD sg13_lv_pmos ad=0.3808p pd=2.92u as=0.2128p ps=1.5u w=1.12u l=0.13u
M7 VSS C1 Y VSS sg13_lv_nmos ad=0.1406p pd=1.12u as=0.2516p ps=2.16u w=0.74u l=0.13u
M8 a_244_140# B2 VSS VSS sg13_lv_nmos ad=0.1406p pd=1.12u as=0.1406p ps=1.12u w=0.74u l=0.13u
M9 Y B1 a_244_140# VSS sg13_lv_nmos ad=0.2516p pd=2.16u as=0.1406p ps=1.12u w=0.74u l=0.13u
.ends

.subckt sg13cmos5l_inv_2 VSS VDD Y A
M0 Y A VSS VSS sg13_lv_nmos ad=0.1406p pd=1.12u as=0.2516p ps=2.16u w=0.74u l=0.13u
M1 Y A VDD VDD sg13_lv_pmos ad=0.2128p pd=1.5u as=0.3808p ps=2.92u w=1.12u l=0.13u
M2 VSS A Y VSS sg13_lv_nmos ad=0.2516p pd=2.16u as=0.1406p ps=1.12u w=0.74u l=0.13u
M3 VDD A Y VDD sg13_lv_pmos ad=0.3864p pd=2.93u as=0.2128p ps=1.5u w=1.12u l=0.13u
.ends

.subckt sg13cmos5l_nand3b_1 A_N Y VDD VSS B C
M0 a_318_122# C VSS VSS sg13_lv_nmos ad=0.1406p pd=1.12u as=0.18575p ps=1.26u w=0.74u l=0.13u
M1 a_420_122# B a_318_122# VSS sg13_lv_nmos ad=0.1406p pd=1.12u as=0.1406p ps=1.12u w=0.74u l=0.13u
M2 Y a_94_160# a_420_122# VSS sg13_lv_nmos ad=0.3404p pd=2.4u as=0.1406p ps=1.12u w=0.74u l=0.13u
M3 VSS A_N a_94_160# VSS sg13_lv_nmos ad=0.18575p pd=1.26u as=0.187p ps=1.78u w=0.55u l=0.13u
M4 VDD A_N a_94_160# VDD sg13_lv_pmos ad=0.2198p pd=1.53u as=0.2856p ps=2.36u w=0.84u l=0.13u
M5 Y C VDD VDD sg13_lv_pmos ad=0.2128p pd=1.5u as=0.2198p ps=1.53u w=1.12u l=0.13u
M6 VDD B Y VDD sg13_lv_pmos ad=0.2128p pd=1.5u as=0.2128p ps=1.5u w=1.12u l=0.13u
M7 Y a_94_160# VDD VDD sg13_lv_pmos ad=0.3808p pd=2.92u as=0.2128p ps=1.5u w=1.12u l=0.13u
.ends

.subckt sg13cmos5l_inv_4 A VDD Y VSS
M0 Y A VSS VSS sg13_lv_nmos ad=0.1406p pd=1.12u as=0.2516p ps=2.16u w=0.74u l=0.13u
M1 Y A VDD VDD sg13_lv_pmos ad=0.2128p pd=1.5u as=0.3808p ps=2.92u w=1.12u l=0.13u
M2 VSS A Y VSS sg13_lv_nmos ad=0.1406p pd=1.12u as=0.1406p ps=1.12u w=0.74u l=0.13u
M3 Y A VSS VSS sg13_lv_nmos ad=0.1406p pd=1.12u as=0.1406p ps=1.12u w=0.74u l=0.13u
M4 VDD A Y VDD sg13_lv_pmos ad=0.2128p pd=1.5u as=0.2128p ps=1.5u w=1.12u l=0.13u