* NGSPICE file created from MSPHY9932_flat.ext - technology: ihp-sg13cmos5l

.subckt MSPHY9932_flat vdd cks vip vin vddr data[0] data[1] data[2] cko frame
X0 sg13cmos5l_Corner_1.vss a_86222_175886# dantenna l=1.26u w=27.78u
X1 sg13cmos5l_Corner_1.vss adc8b_0.diff_bsw_0.single_bsw_0.sg13cmos5l_inv_1$1_0.A a_70946_99114# sg13cmos5l_Corner_1.vss sg13_lv_nmos ad=1.02p pd=6.68u as=0.57p ps=3.38u w=3u l=0.13u
X2 a_89146_97322# adc8b_0.sar12b_0.sg13cmos5l_dfrbp_1_6.RESET_B sg13cmos5l_Corner_1.vss sg13cmos5l_Corner_1.vss sg13_lv_nmos ad=37.8f pd=0.6u as=79.8f ps=0.8u w=0.42u l=0.13u
X3 vdd a_94701_97301# a_94803_97444# vdd sg13_lv_pmos ad=1.07253p pd=6.75u as=0.3864p ps=2.93u w=1.12u l=0.13u
X4 a_96764_96572# a_96351_96930# a_96696_96572# vdd sg13_lv_pmos ad=0.191p pd=1.44u as=0.105p ps=1.21u w=1u l=0.13u
X5 sg13cmos5l_Corner_1.vss a_89656_96030# a_89305_95887# sg13cmos5l_Corner_1.vss sg13_lv_nmos ad=79.8f pd=0.8u as=0.1428p ps=1.52u w=0.42u l=0.13u
X6 a_97125_92976# adc8b_0.sar12b_0.sg13cmos5l_dfrbp_1_0.Q vdd vdd sg13_lv_pmos ad=0.2856p pd=2.36u as=0.2198p ps=1.53u w=0.84u l=0.13u
X7 vdd a_90740_100310# adc8b_0.sar12b_0.sg13cmos5l_buf_1_77.X vdd sg13_lv_pmos ad=0.2114p pd=1.54u as=0.42p ps=2.99u w=1.12u l=0.13u
X8 sg13cmos5l_Corner_1.vss adc8b_0.sar12b_0.sg13cmos5l_buf_1_76.X a_87184_100384# sg13cmos5l_Corner_1.vss sg13_lv_nmos ad=0.14875p pd=1.16u as=0.187p ps=1.78u w=0.55u l=0.13u
X9 vdd adc8b_0.sar12b_0.sg13cmos5l_dfrbp_1_6.RESET_B a_89266_99057# vdd sg13_lv_pmos ad=0.1563p pd=1.22u as=0.147p ps=1.54u w=0.42u l=0.13u
X10 adc8b_0.sar12b_0.sg13cmos5l_buf_8_0.X a_100995_95814# vdd vdd sg13_lv_pmos ad=0.2128p pd=1.5u as=0.2128p ps=1.5u w=1.12u l=0.13u
X11 vdd sg13cmos5l_Corner_1.vss vdd vdd sg13_lv_pmos ad=0.34p pd=2.68u as=1.12529n ps=7.72949m w=1u l=1u
X12 sg13cmos5l_Corner_1.vss sg13cmos5l_IOPadVdd$1_0.sg13cmos5l_Clamp_N43N43D4R$1_0.gate vdd sg13cmos5l_Corner_1.vss sg13_hv_nmos ad=1.408p pd=5.04u as=2.596p ps=5.58u w=4.4u l=0.6u
X13 sg13cmos5l_IOPadAnalog_12.pad a_131639_164698# sg13cmos5l_Corner_1.iovdd sg13cmos5l_Corner_1.iovdd sg13_hv_pmos ad=3.9294p pd=7.84u as=2.1312p ps=7.3u w=6.66u l=0.6u
X14 data[1] a_86044_42476# sg13cmos5l_Corner_1.iovdd sg13cmos5l_Corner_1.iovdd sg13_hv_pmos ad=3.9294p pd=7.84u as=2.1312p ps=7.3u w=6.66u l=0.6u
X15 sg13cmos5l_Corner_1.iovdd a_118044_42476# cko sg13cmos5l_Corner_1.iovdd sg13_hv_pmos ad=2.1312p pd=7.3u as=3.9294p ps=7.84u w=6.66u l=0.6u
X16 adc8b_0.side_cap8b_0.buf_32_1.z adc8b_0.side_cap8b_0.in_h_sw[0] vddr vddr sg13_lv_pmos ad=0.19p pd=1.38u as=0.19p ps=1.38u w=1u l=0.13u
X17 vdd adc8b_0.sar12b_0.sg13cmos5l_dfrbp_1_6.RESET_B a_90225_98441# vdd sg13_lv_pmos ad=0.2128p pd=1.5u as=0.2128p ps=1.5u w=1.12u l=0.13u
X18 a_97358_95810# a_98163_95932# a_97618_96033# vdd sg13_lv_pmos ad=0.1428p pd=1.52u as=79.8f ps=0.8u w=0.42u l=0.13u
X19 sg13cmos5l_IOPadVdd$1_0.sg13cmos5l_Clamp_N43N43D4R$1_0.gate sg13cmos5l_IOPadVdd$1_0.sg13cmos5l_RCClampInverter$1_0.in vdd vdd sg13_hv_pmos ad=1.33p pd=7.38u as=1.33p ps=7.38u w=7u l=0.5u
X20 adc8b_0.side_cap8b_0.buf_8_3.z adc8b_0.side_cap8b_0.in_h_sw[3] vddr vddr sg13_lv_pmos ad=0.34p pd=2.68u as=0.19p ps=1.38u w=1u l=0.13u
X21 vddr a_42476_70044# sg13cmos5l_Corner_1.iovdd sg13cmos5l_Corner_1.iovdd sg13_hv_pmos ad=3.9294p pd=7.84u as=2.1312p ps=7.3u w=6.66u l=0.6u
X22 adc8b_0.sar12b_0.sg13cmos5l_buf_1_6.A a_94288_94336# vdd vdd sg13_lv_pmos ad=0.42p pd=2.99u as=0.2114p ps=1.54u w=1.12u l=0.13u
X23 a_90207_97338# adc8b_0.sar12b_0.sg13cmos5l_dlhr_1_5.GATE vdd vdd sg13_lv_pmos ad=0.3234p pd=2.45u as=1.04815p ps=6.595u w=0.84u l=0.13u
X24 sg13cmos5l_Corner_1.vss a_134044_30676# frame sg13cmos5l_Corner_1.vss sg13_hv_nmos ad=1.408p pd=5.04u as=2.596p ps=5.58u w=4.4u l=0.6u
X25 a_36456_134755# a_40542_134425# sg13cmos5l_Corner_1.vss rppd l=20u w=1u
X26 adc8b_0.sar12b_0.sg13cmos5l_buf_1_56.A a_90801_97322# vdd vdd sg13_lv_pmos ad=0.3808p pd=2.92u as=0.2128p ps=1.5u w=1.12u l=0.13u
X27 sg13cmos5l_Corner_1.vss adc8b_0.sar12b_0.sg13cmos5l_dfrbp_1_6.RESET_B a_101596_97308# sg13cmos5l_Corner_1.vss sg13_lv_nmos ad=0.1406p pd=1.12u as=77.7f ps=0.95u w=0.74u l=0.13u
X28 sg13cmos5l_Corner_1.vss sg13cmos5l_IOPadVdd$1_0.sg13cmos5l_Clamp_N43N43D4R$1_0.gate vdd sg13cmos5l_Corner_1.vss sg13_hv_nmos ad=1.408p pd=5.04u as=2.596p ps=5.58u w=4.4u l=0.6u
X29 a_84333_99607# adc8b_0.sar12b_0.sg13cmos5l_inv_1_8.A vdd vdd sg13_lv_pmos ad=0.4088p pd=2.97u as=1.12242p ps=7u w=1.12u l=0.13u
X30 vdd a_99160_96030# a_99105_96125# vdd sg13_lv_pmos ad=1.28962p pd=8.195u as=93.45f ps=0.865u w=0.42u l=0.13u
X31 sg13cmos5l_Corner_1.vss a_94583_95421# a_95420_95060# sg13cmos5l_Corner_1.vss sg13_lv_nmos ad=0.1406p pd=1.12u as=0.2516p ps=2.16u w=0.74u l=0.13u
X32 sg13cmos5l_Corner_1.iovdd a_164624_70044# sg13cmos5l_IOPadAnalog_1.pad sg13cmos5l_Corner_1.iovdd sg13_hv_pmos ad=2.1312p pd=7.3u as=3.9294p ps=7.84u w=6.66u l=0.6u
X33 sg13cmos5l_Corner_1.vss a_30676_86044# vin sg13cmos5l_Corner_1.vss sg13_hv_nmos ad=1.408p pd=5.04u as=2.596p ps=5.58u w=4.4u l=0.6u
X34 a_86718_96859# a_86837_96536# vdd vdd sg13_lv_pmos ad=0.3864p pd=2.93u as=0.2128p ps=1.5u w=1.12u l=0.13u
X35 a_88671_94314# adc8b_0.sar12b_0.sg13cmos5l_dlhr_1_0.GATE vdd vdd sg13_lv_pmos ad=0.3234p pd=2.45u as=1.43437p ps=9.105u w=0.84u l=0.13u
X36 data[0] a_70044_42476# sg13cmos5l_Corner_1.iovdd sg13cmos5l_Corner_1.iovdd sg13_hv_pmos ad=3.9294p pd=7.84u as=2.1312p ps=7.3u w=6.66u l=0.6u
X37 sg13cmos5l_IOPadAnalog_0.pad a_178296_86044# sg13cmos5l_Corner_1.vss sg13cmos5l_Corner_1.vss sg13_hv_nmos ad=2.596p pd=5.58u as=1.408p ps=5.04u w=4.4u l=0.6u
X38 a_96244_93548# a_96022_93604# vdd vdd sg13_lv_pmos ad=0.1176p pd=1.33u as=0.2618p ps=1.63u w=1.12u l=0.13u
X39 adc8b_0.side_cap8b_0.buf_8_2.z adc8b_0.side_cap8b_0.in_h_sw[4] sg13cmos5l_Corner_1.vss sg13cmos5l_Corner_1.vss sg13_lv_nmos ad=95f pd=0.88u as=95f ps=0.88u w=0.5u l=0.13u
X40 sg13cmos5l_Corner_1.vss a_83639_178370# sg13cmos5l_IOPadAnalog_9.pad sg13cmos5l_Corner_1.vss sg13_hv_nmos ad=1.408p pd=5.04u as=2.596p ps=5.58u w=4.4u l=0.6u
X41 a_82476_98088# a_82995_98095# a_83735_98445# sg13cmos5l_Corner_1.vss sg13_lv_nmos ad=0.3473p pd=2.71u as=0.12665p ps=1.145u w=0.74u l=0.13u
X42 a_87564_95064# a_87538_95028# sg13cmos5l_Corner_1.vss sg13cmos5l_Corner_1.vss sg13_lv_nmos ad=0.2516p pd=2.16u as=0.1626p ps=1.415u w=0.74u l=0.13u
X43 vddr adc8b_0.sar12b_0.nh_sw[2] adc8b_0.side_cap8b_1.buf_16_0.z vddr sg13_lv_pmos ad=0.19p pd=1.38u as=0.19p ps=1.38u w=1u l=0.13u
X44 vdd a_98036_94262# adc8b_0.sar12b_0.nl_sw[8] vdd sg13_lv_pmos ad=0.2114p pd=1.54u as=0.42p ps=2.99u w=1.12u l=0.13u
X45 sg13cmos5l_Corner_1.vss a_67639_178370# sg13cmos5l_IOPadAnalog_10.pad sg13cmos5l_Corner_1.vss sg13_hv_nmos ad=2.068p pd=9.74u as=2.596p ps=5.58u w=4.4u l=0.6u
X46 a_87564_95064# a_88083_95071# a_88823_95421# sg13cmos5l_Corner_1.vss sg13_lv_nmos ad=0.3473p pd=2.71u as=0.12665p ps=1.145u w=0.74u l=0.13u
X47 vdd sg13cmos5l_Corner_1.vss vdd vdd sg13_lv_pmos ad=0.34p pd=2.68u as=0 ps=0 w=1u l=1u
X48 sg13cmos5l_Corner_1.vss adc8b_0.sar12b_0.sg13cmos5l_dfrbp_1_8.RESET_B a_88766_96997# sg13cmos5l_Corner_1.vss sg13_lv_nmos ad=0.1701p pd=1.65u as=37.8f ps=0.6u w=0.42u l=0.13u
X49 vdd a_88671_94314# a_88802_94308# vdd sg13_lv_pmos ad=1.43437p pd=9.105u as=0.2856p ps=2.36u w=0.84u l=0.13u
X50 sg13cmos5l_Corner_1.iovdd a_42476_86044# vin sg13cmos5l_Corner_1.iovdd sg13_hv_pmos ad=2.1312p pd=7.3u as=3.9294p ps=7.84u w=6.66u l=0.6u
X51 sg13cmos5l_Corner_1.vss adc8b_0.sar12b_0.sg13cmos5l_buf_1_78.A a_87952_100384# sg13cmos5l_Corner_1.vss sg13_lv_nmos ad=0.14875p pd=1.16u as=0.187p ps=1.78u w=0.55u l=0.13u
X52 vdd adc8b_0.sar12b_0.sg13cmos5l_dlygate4sd2_1_0.A a_82670_94302# vdd sg13_lv_pmos ad=0.2481p pd=1.56u as=0.1428p ps=1.52u w=0.42u l=0.13u
X53 a_98894_92786# adc8b_0.sar12b_0.sg13cmos5l_dfrbp_1_0.D vdd vdd sg13_lv_pmos ad=79.8f pd=0.8u as=0.1428p ps=1.52u w=0.42u l=0.13u
X54 sg13cmos5l_Corner_1.vss a_96568_94518# a_96217_94375# sg13cmos5l_Corner_1.vss sg13_lv_nmos ad=79.8f pd=0.8u as=0.1428p ps=1.52u w=0.42u l=0.13u
X55 a_99825_94689# a_99468_94616# vdd vdd sg13_lv_pmos ad=63f pd=0.72u as=0.1563p ps=1.22u w=0.42u l=0.13u
X56 a_100995_95814# adc8b_0.sar12b_0.sg13cmos5l_buf_8_0.A vdd vdd sg13_lv_pmos ad=0.2128p pd=1.5u as=0.2128p ps=1.5u w=1.12u l=0.13u
X57 a_89242_95498# adc8b_0.sar12b_0.sg13cmos5l_dfrbp_1_6.RESET_B sg13cmos5l_Corner_1.vss sg13cmos5l_Corner_1.vss sg13_lv_nmos ad=37.8f pd=0.6u as=79.8f ps=0.8u w=0.42u l=0.13u
X58 sg13cmos5l_IOPadVdd$1_0.sg13cmos5l_Clamp_N43N43D4R$1_0.gate sg13cmos5l_IOPadVdd$1_0.sg13cmos5l_RCClampInverter$1_0.in vdd vdd sg13_hv_pmos ad=1.33p pd=7.38u as=1.33p ps=7.38u w=7u l=0.5u
X59 cks a_42476_118044# sg13cmos5l_Corner_1.iovdd sg13cmos5l_Corner_1.iovdd sg13_hv_pmos ad=3.9294p pd=7.84u as=3.1302p ps=14.26u w=6.66u l=0.6u
X60 a_83916_95064# a_83890_95028# sg13cmos5l_Corner_1.vss sg13cmos5l_Corner_1.vss sg13_lv_nmos ad=0.2516p pd=2.16u as=0.1626p ps=1.415u w=0.74u l=0.13u
X61 adc8b_0.side_cap8b_1.buf_32_0.z adc8b_0.sar12b_0.nl_sw[0] vddr vddr sg13_lv_pmos ad=0.19p pd=1.38u as=0.19p ps=1.38u w=1u l=0.13u
X62 sg13cmos5l_IOPadAnalog_1.pad a_164624_70044# sg13cmos5l_Corner_1.iovdd sg13cmos5l_Corner_1.iovdd sg13_hv_pmos ad=3.9294p pd=7.84u as=2.1312p ps=7.3u w=6.66u l=0.6u
X63 adc8b_0.side_cap8b_1.buf_16_3.z adc8b_0.sar12b_0.nh_sw[1] vddr vddr sg13_lv_pmos ad=0.19p pd=1.38u as=0.19p ps=1.38u w=1u l=0.13u
X64 sg13cmos5l_IOPadAnalog_10.pad a_67639_178370# sg13cmos5l_Corner_1.vss sg13cmos5l_Corner_1.vss sg13_hv_nmos ad=2.596p pd=5.58u as=1.408p ps=5.04u w=4.4u l=0.6u
X65 vdd adc8b_0.sar12b_0.sg13cmos5l_buf_1_73.X a_87568_100384# vdd sg13_lv_pmos ad=0.2114p pd=1.54u as=0.2856p ps=2.36u w=0.84u l=0.13u
X66 a_90897_99643# a_90540_99600# vdd vdd sg13_lv_pmos ad=63f pd=0.72u as=0.1563p ps=1.22u w=0.42u l=0.13u
X67 sg13cmos5l_Corner_1.vss vdd sg13cmos5l_Corner_1.vss sg13cmos5l_Corner_1.vss sg13_lv_nmos ad=0.1428p pd=1.52u as=25.72481n ps=0.04234 w=0.42u l=1u
X68 adc8b_0.side_cap8b_0.buf_8_4.z adc8b_0.side_cap8b_0.in_l_sw[5] vddr vddr sg13_lv_pmos ad=0.19p pd=1.38u as=0.19p ps=1.38u w=1u l=0.13u
X69 a_99548_99596# a_99266_99960# a_99481_99998# sg13cmos5l_Corner_1.vss sg13_lv_nmos ad=0.141p pd=1.17u as=71.99999f ps=0.865u w=0.64u l=0.13u
X70 vdd a_84525_94277# a_84627_94420# vdd sg13_lv_pmos ad=1.43437p pd=9.105u as=0.3864p ps=2.93u w=1.12u l=0.13u
X71 a_84108_94616# a_84627_94420# a_85367_94375# sg13cmos5l_Corner_1.vss sg13_lv_nmos ad=0.3473p pd=2.71u as=0.12665p ps=1.145u w=0.74u l=0.13u
X72 adc8b_0.sar12b_0.sg13cmos5l_buf_1_59.A a_86193_98441# sg13cmos5l_Corner_1.vss sg13cmos5l_Corner_1.vss sg13_lv_nmos ad=0.2516p pd=2.16u as=0.1406p ps=1.12u w=0.74u l=0.13u
X73 sg13cmos5l_IOPadAnalog_9.pad a_83639_164698# sg13cmos5l_Corner_1.iovdd sg13cmos5l_Corner_1.iovdd sg13_hv_pmos ad=3.9294p pd=7.84u as=2.1312p ps=7.3u w=6.66u l=0.6u
X74 a_90254_100034# adc8b_0.sar12b_0.sg13cmos5l_dfrbp_1_18.Q vdd vdd sg13_lv_pmos ad=79.8f pd=0.8u as=0.1428p ps=1.52u w=0.42u l=0.13u
X75 adc8b_0.sar12b_0.sg13cmos5l_dlhr_1_7.Q_N a_86718_98514# sg13cmos5l_Corner_1.vss sg13cmos5l_Corner_1.vss sg13_lv_nmos ad=0.2516p pd=2.16u as=0.1491p ps=1.18u w=0.74u l=0.13u
X76 a_85594_95498# adc8b_0.sar12b_0.sg13cmos5l_dfrbp_1_8.RESET_B sg13cmos5l_Corner_1.vss sg13cmos5l_Corner_1.vss sg13_lv_nmos ad=37.8f pd=0.6u as=79.8f ps=0.8u w=0.42u l=0.13u
X77 sg13cmos5l_Corner_1.iovdd a_164624_102044# sg13cmos5l_IOPadAnalog_16.pad sg13cmos5l_Corner_1.iovdd sg13_hv_pmos ad=2.1312p pd=7.3u as=3.9294p ps=7.84u w=6.66u l=0.6u
X78 sg13cmos5l_Corner_1.vss a_99639_178370# sg13cmos5l_IOPadAnalog_15.pad sg13cmos5l_Corner_1.vss sg13_hv_nmos ad=1.408p pd=5.04u as=2.596p ps=5.58u w=4.4u l=0.6u
X79 sg13cmos5l_Corner_1.vss adc8b_0.sar12b_0.sg13cmos5l_buf_8_2.X a_101776_98872# sg13cmos5l_Corner_1.vss sg13_lv_nmos ad=0.14875p pd=1.16u as=0.187p ps=1.78u w=0.55u l=0.13u
X80 sg13cmos5l_Corner_1.vss adc8b_0.sar12b_0.sg13cmos5l_dfrbp_1_8.RESET_B a_85694_97335# sg13cmos5l_Corner_1.vss sg13_lv_nmos ad=0.1701p pd=1.65u as=37.8f ps=0.6u w=0.42u l=0.13u
X81 a_92086_96572# adc8b_0.sar12b_0.sg13cmos5l_a221oi_1_0.C1 a_92188_96572# vdd sg13_lv_pmos ad=0.3808p pd=2.92u as=0.2128p ps=1.5u w=1.12u l=0.13u
X82 sg13cmos5l_Corner_1.vss vdd sg13cmos5l_Corner_1.vss sg13cmos5l_Corner_1.vss sg13_lv_nmos ad=0.1428p pd=1.52u as=0 ps=0 w=0.42u l=1u
X83 sg13cmos5l_Corner_1.vss a_115639_178370# sg13cmos5l_IOPadAnalog_13.pad sg13cmos5l_Corner_1.vss sg13_hv_nmos ad=1.408p pd=5.04u as=2.596p ps=5.58u w=4.4u l=0.6u
X84 adc8b_0.side_cap8b_0.buf_4_3.z adc8b_0.side_cap8b_0.in_l_sw[6] sg13cmos5l_Corner_1.vss sg13cmos5l_Corner_1.vss sg13_lv_nmos ad=95f pd=0.88u as=95f ps=0.88u w=0.5u l=0.13u
X85 adc8b_0.sar12b_0.sg13cmos5l_buf_1_101.X a_98032_100384# vdd vdd sg13_lv_pmos ad=0.42p pd=2.99u as=0.2114p ps=1.54u w=1.12u l=0.13u
X86 a_98028_97640# a_98002_97545# vdd vdd sg13_lv_pmos ad=0.34p pd=2.68u as=0.36237p ps=2.605u w=1u l=0.13u
X87 sg13cmos5l_Corner_1.vss a_93741_95071# a_93843_95071# sg13cmos5l_Corner_1.vss sg13_lv_nmos ad=2.41737p pd=15.64u as=0.2516p ps=2.16u w=0.74u l=0.13u
X88 sg13cmos5l_Corner_1.vss a_70044_30676# data[0] sg13cmos5l_Corner_1.vss sg13_hv_nmos ad=1.408p pd=5.04u as=2.596p ps=5.58u w=4.4u l=0.6u
X89 sg13cmos5l_Corner_1.vss adc8b_0.sar12b_0.sg13cmos5l_dfrbp_1_6.RESET_B a_95164_98472# sg13cmos5l_Corner_1.vss sg13_lv_nmos ad=0.1406p pd=1.12u as=77.7f ps=0.95u w=0.74u l=0.13u
X90 vdd a_88863_92802# a_88994_92796# vdd sg13_lv_pmos ad=1.86162p pd=11.935u as=0.2856p ps=2.36u w=0.84u l=0.13u
X91 sg13cmos5l_Corner_1.iovdd a_131639_164698# sg13cmos5l_IOPadAnalog_12.pad sg13cmos5l_Corner_1.iovdd sg13_hv_pmos ad=2.1312p pd=7.3u as=3.9294p ps=7.84u w=6.66u l=0.6u
X92 sg13cmos5l_Corner_1.iovdd a_42476_118044# cks sg13cmos5l_Corner_1.iovdd sg13_hv_pmos ad=2.1312p pd=7.3u as=3.9294p ps=7.84u w=6.66u l=0.6u
X93 sg13cmos5l_Corner_1.vss adc8b_0.sar12b_0.sg13cmos5l_buf_1_62.X a_83632_100384# sg13cmos5l_Corner_1.vss sg13_lv_nmos ad=0.14875p pd=1.16u as=0.187p ps=1.78u w=0.55u l=0.13u
X94 vddr adc8b_0.sar12b_0.nh_sw[0] adc8b_0.side_cap8b_1.buf_32_1.z vddr sg13_lv_pmos ad=0.19p pd=1.38u as=0.19p ps=1.38u w=1u l=0.13u
X95 a_86286_99156# a_86117_98796# a_85844_98784# vdd sg13_lv_pmos ad=0.105p pd=1.21u as=0.191p ps=1.44u w=1u l=0.13u
X96 a_92950_95836# adc8b_0.sar12b_0.sg13cmos5l_a221oi_1_0.A2 sg13cmos5l_Corner_1.vss sg13cmos5l_Corner_1.vss sg13_lv_nmos ad=0.1406p pd=1.12u as=0.2516p ps=2.16u w=0.74u l=0.13u
X97 sg13cmos5l_IOPadAnalog_1.pad a_164624_70044# sg13cmos5l_Corner_1.iovdd sg13cmos5l_Corner_1.iovdd sg13_hv_pmos ad=3.9294p pd=7.84u as=3.1302p ps=14.26u w=6.66u l=0.6u
X98 a_96692_92750# adc8b_0.sar12b_0.sg13cmos5l_buf_1_6.A vdd vdd sg13_lv_pmos ad=0.2856p pd=2.36u as=0.2114p ps=1.54u w=0.84u l=0.13u
X99 adc8b_0.sar12b_0.sg13cmos5l_dlhr_1_16.Q a_100977_96929# sg13cmos5l_Corner_1.vss sg13cmos5l_Corner_1.vss sg13_lv_nmos ad=0.2516p pd=2.16u as=0.1406p ps=1.12u w=0.74u l=0.13u
X100 sg13cmos5l_Corner_1.vss adc8b_0.sar12b_0.nl_sw[4] adc8b_0.side_cap8b_1.buf_8_0.z sg13cmos5l_Corner_1.vss sg13_lv_nmos ad=95f pd=0.88u as=0.17p ps=1.68u w=0.5u l=0.13u
X101 adc8b_0.side_cap8b_0.buf_16_1.z adc8b_0.side_cap8b_0.in_l_sw[2] vddr vddr sg13_lv_pmos ad=0.19p pd=1.38u as=0.19p ps=1.38u w=1u l=0.13u
X102 adc8b_0.sar12b_0.sg13cmos5l_inv_1_29.A a_94172_99132# vdd vdd sg13_lv_pmos ad=0.3808p pd=2.92u as=0.2128p ps=1.5u w=1.12u l=0.13u
X103 sg13cmos5l_IOPadAnalog_0.pad a_164624_86044# sg13cmos5l_Corner_1.iovdd sg13cmos5l_Corner_1.iovdd sg13_hv_pmos ad=3.9294p pd=7.84u as=2.1312p ps=7.3u w=6.66u l=0.6u
X104 sg13cmos5l_Corner_1.vss sg13cmos5l_IOPadAnalog_15.padres dantenna l=3.1u w=0.64u
X105 adc8b_0.sar12b_0.sg13cmos5l_dlhr_1_16.Q_N a_101502_97002# sg13cmos5l_Corner_1.vss sg13cmos5l_Corner_1.vss sg13_lv_nmos ad=0.2516p pd=2.16u as=0.1491p ps=1.18u w=0.74u l=0.13u
X106 a_97972_95498# a_97589_95024# vdd vdd sg13_lv_pmos ad=79.8f pd=0.8u as=0.2639p ps=1.81u w=0.42u l=0.13u
X107 vdd adc8b_0.sar12b_0.sg13cmos5l_dfrbp_1_0.RESET_B a_93298_93009# vdd sg13_lv_pmos ad=0.1563p pd=1.22u as=0.147p ps=1.54u w=0.42u l=0.13u
X108 a_85628_93548# a_85346_93912# a_85561_93950# sg13cmos5l_Corner_1.vss sg13_lv_nmos ad=0.141p pd=1.17u as=71.99999f ps=0.865u w=0.64u l=0.13u
X109 vdd sg13cmos5l_IOPadVdd$1_0.sg13cmos5l_Clamp_N43N43D4R$1_0.gate sg13cmos5l_Corner_1.vss sg13cmos5l_Corner_1.vss sg13_hv_nmos ad=2.596p pd=5.58u as=1.408p ps=5.04u w=4.4u l=0.6u
X110 adc8b_0.side_cap8b_1.buf_16_3.z adc8b_0.sar12b_0.nh_sw[1] sg13cmos5l_Corner_1.vss sg13cmos5l_Corner_1.vss sg13_lv_nmos ad=95f pd=0.88u as=95f ps=0.88u w=0.5u l=0.13u
X111 vdd adc8b_0.sar12b_0.sg13cmos5l_buf_1_74.X a_88336_100384# vdd sg13_lv_pmos ad=0.2114p pd=1.54u as=0.2856p ps=2.36u w=0.84u l=0.13u
X112 sg13cmos5l_IOPadAnalog_1.pad a_164624_70044# sg13cmos5l_Corner_1.iovdd sg13cmos5l_Corner_1.iovdd sg13_hv_pmos ad=3.9294p pd=7.84u as=2.1312p ps=7.3u w=6.66u l=0.6u
X113 sg13cmos5l_IOPadAnalog_16.pad a_164624_102044# sg13cmos5l_Corner_1.iovdd sg13cmos5l_Corner_1.iovdd sg13_hv_pmos ad=3.9294p pd=7.84u as=2.1312p ps=7.3u w=6.66u l=0.6u
X114 a_92076_99152# a_92595_98956# a_93335_98911# sg13cmos5l_Corner_1.vss sg13_lv_nmos ad=0.3473p pd=2.71u as=0.12665p ps=1.145u w=0.74u l=0.13u
X115 a_99468_92799# a_99180_93104# a_99406_92799# sg13cmos5l_Corner_1.vss sg13_lv_nmos ad=0.1428p pd=1.52u as=37.8f ps=0.6u w=0.42u l=0.13u
X116 sg13cmos5l_IOPadAnalog_12.pad a_131639_164698# sg13cmos5l_Corner_1.iovdd sg13cmos5l_Corner_1.iovdd sg13_hv_pmos ad=3.9294p pd=7.84u as=3.1302p ps=14.26u w=6.66u l=0.6u
X117 sg13cmos5l_IOPadAnalog_13.pad a_115639_164698# sg13cmos5l_Corner_1.iovdd sg13cmos5l_Corner_1.iovdd sg13_hv_pmos ad=3.9294p pd=7.84u as=2.1312p ps=7.3u w=6.66u l=0.6u
X118 a_100995_100350# cks vdd vdd sg13_lv_pmos ad=0.2128p pd=1.5u as=0.2128p ps=1.5u w=1.12u l=0.13u
X119 vdd a_83992_98326# a_83937_98207# vdd sg13_lv_pmos ad=1.07253p pd=6.75u as=93.45f ps=0.865u w=0.42u l=0.13u
X120 a_95800_97542# adc8b_0.sar12b_0.sg13cmos5l_dfrbp_1_6.RESET_B vdd vdd sg13_lv_pmos ad=79.8f pd=0.8u as=1.04815p ps=6.595u w=0.42u l=0.13u
X121 vdd a_85773_95789# a_85875_95932# vdd sg13_lv_pmos ad=1.28962p pd=8.195u as=0.3864p ps=2.93u w=1.12u l=0.13u
X122 vdd adc8b_0.cmp_0.clk adc8b_0.cmp_0.outp vdd sg13_lv_pmos ad=95f pd=0.88u as=0.17p ps=1.68u w=0.5u l=0.13u
X123 vdd a_90808_99054# a_90753_99149# vdd sg13_lv_pmos ad=1.15047p pd=7.175u as=93.45f ps=0.865u w=0.42u l=0.13u
X124 sg13cmos5l_Corner_1.vss a_100113_98834# a_100068_98870# sg13cmos5l_Corner_1.vss sg13_lv_nmos ad=0.1428p pd=1.52u as=47.25f ps=0.645u w=0.42u l=0.13u
X125 a_84108_94616# a_84082_94521# vdd vdd sg13_lv_pmos ad=0.34p pd=2.68u as=0.36237p ps=2.605u w=1u l=0.13u
X126 vddr adc8b_0.side_cap8b_0.in_l_sw[9] adc8b_0.side_cap8b_0.buf_2_2.z vddr sg13_lv_pmos ad=0.19p pd=1.38u as=0.34p ps=2.68u w=1u l=0.13u
X127 adc8b_0.side_cap8b_0.buf_4_2.z adc8b_0.side_cap8b_0.in_h_sw[7] sg13cmos5l_Corner_1.vss sg13cmos5l_Corner_1.vss sg13_lv_nmos ad=95f pd=0.88u as=95f ps=0.88u w=0.5u l=0.13u
X128 sg13cmos5l_Corner_1.vss adc8b_0.sar12b_0.sg13cmos5l_buf_1_31.X a_83440_94336# sg13cmos5l_Corner_1.vss sg13_lv_nmos ad=0.14875p pd=1.16u as=0.187p ps=1.78u w=0.55u l=0.13u
X129 adc8b_0.side_cap8b_1.buf_8_2.z adc8b_0.sar12b_0.nh_sw[4] sg13cmos5l_Corner_1.vss sg13cmos5l_Corner_1.vss sg13_lv_nmos ad=0.17p pd=1.68u as=95f ps=0.88u w=0.5u l=0.13u
X130 a_36456_138055# a_40542_137725# sg13cmos5l_Corner_1.vss rppd l=20u w=1u
X131 sg13cmos5l_Corner_1.vss a_95409_98834# a_95364_98870# sg13cmos5l_Corner_1.vss sg13_lv_nmos ad=0.1428p pd=1.52u as=47.25f ps=0.645u w=0.42u l=0.13u
X132 a_86718_96859# a_86837_96536# sg13cmos5l_Corner_1.vss sg13cmos5l_Corner_1.vss sg13_lv_nmos ad=0.2516p pd=2.16u as=0.1406p ps=1.12u w=0.74u l=0.13u
X133 adc8b_0.side_cap8b_1.buf_32_1.z adc8b_0.sar12b_0.nh_sw[0] sg13cmos5l_Corner_1.vss sg13cmos5l_Corner_1.vss sg13_lv_nmos ad=95f pd=0.88u as=95f ps=0.88u w=0.5u l=0.13u
X134 adc8b_0.sar12b_0.sg13cmos5l_a22oi_1_1.B2 adc8b_0.sar12b_0.sg13cmos5l_and3_1_0.X a_95466_96572# vdd sg13_lv_pmos ad=0.3808p pd=2.92u as=0.2128p ps=1.5u w=1.12u l=0.13u
X135 sg13cmos5l_Corner_1.vss adc8b_0.sar12b_0.nh_sw[0] adc8b_0.side_cap8b_1.buf_32_1.z sg13cmos5l_Corner_1.vss sg13_lv_nmos ad=95f pd=0.88u as=95f ps=0.88u w=0.5u l=0.13u
X136 sg13cmos5l_Corner_1.iovdd a_42476_102044# vip sg13cmos5l_Corner_1.iovdd sg13_hv_pmos ad=2.1312p pd=7.3u as=3.9294p ps=7.84u w=6.66u l=0.6u
X137 sg13cmos5l_Corner_1.iovdd a_134044_42476# frame sg13cmos5l_Corner_1.iovdd sg13_hv_pmos ad=2.1312p pd=7.3u as=3.9294p ps=7.84u w=6.66u l=0.6u
X138 adc8b_0.side_cap8b_0.buf_16_3.z adc8b_0.side_cap8b_0.in_h_sw[1] sg13cmos5l_Corner_1.vss sg13cmos5l_Corner_1.vss sg13_lv_nmos ad=95f pd=0.88u as=95f ps=0.88u w=0.5u l=0.13u
X139 adc8b_0.sar12b_0.sg13cmos5l_dlhr_1_0.GATE a_87452_96108# vdd vdd sg13_lv_pmos ad=0.3808p pd=2.92u as=0.2128p ps=1.5u w=1.12u l=0.13u
X140 vdd adc8b_0.sar12b_0.sg13cmos5l_buf_1_39.A a_85456_92824# vdd sg13_lv_pmos ad=0.2114p pd=1.54u as=0.2856p ps=2.36u w=0.84u l=0.13u
X141 sg13cmos5l_IOPadVdd$1_0.sg13cmos5l_Clamp_N43N43D4R$1_0.gate sg13cmos5l_IOPadVdd$1_0.sg13cmos5l_RCClampInverter$1_0.in vdd vdd sg13_hv_pmos ad=1.33p pd=7.38u as=1.33p ps=7.38u w=7u l=0.5u
X142 vdd adc8b_0.sar12b_0.sg13cmos5l_buf_1_34.X adc8b_0.sar12b_0.sg13cmos5l_buf_1_60.A vdd sg13_lv_pmos ad=0.3808p pd=2.92u as=0.3808p ps=2.92u w=1.12u l=0.13u
X143 sg13cmos5l_Corner_1.vss a_67639_178370# sg13cmos5l_IOPadAnalog_10.pad sg13cmos5l_Corner_1.vss sg13_hv_nmos ad=1.408p pd=5.04u as=2.596p ps=5.58u w=4.4u l=0.6u
X144 vddr adc8b_0.side_cap8b_0.in_h_sw[2] adc8b_0.side_cap8b_0.buf_16_0.z vddr sg13_lv_pmos ad=0.19p pd=1.38u as=0.19p ps=1.38u w=1u l=0.13u
X145 a_96476_98084# a_96063_98442# a_96408_98084# vdd sg13_lv_pmos ad=0.191p pd=1.44u as=0.105p ps=1.21u w=1u l=0.13u
X146 sg13cmos5l_IOPadAnalog_11.pad a_164624_118044# sg13cmos5l_Corner_1.iovdd sg13cmos5l_Corner_1.iovdd sg13_hv_pmos ad=3.9294p pd=7.84u as=2.1312p ps=7.3u w=6.66u l=0.6u
X147 vdd sg13cmos5l_IOPadVdd$1_0.sg13cmos5l_Clamp_N43N43D4R$1_0.gate sg13cmos5l_Corner_1.vss sg13cmos5l_Corner_1.vss sg13_hv_nmos ad=2.596p pd=5.58u as=1.408p ps=5.04u w=4.4u l=0.6u
X148 adc8b_0.sar12b_0.sg13cmos5l_dlhr_1_11.Q a_94929_98441# vdd vdd sg13_lv_pmos ad=0.3808p pd=2.92u as=0.2128p ps=1.5u w=1.12u l=0.13u
X149 a_95469_94277# adc8b_0.sar12b_0.sg13cmos5l_dfrbp_1_0.CLK vdd vdd sg13_lv_pmos ad=0.4088p pd=2.97u as=1.38655p ps=8.8u w=1.12u l=0.13u
X150 adc8b_0.side_cap8b_1.buf_16_0.z adc8b_0.sar12b_0.nh_sw[2] vddr vddr sg13_lv_pmos ad=0.19p pd=1.38u as=0.19p ps=1.38u w=1u l=0.13u
X151 sg13cmos5l_Corner_1.iovdd a_118044_42476# cko sg13cmos5l_Corner_1.iovdd sg13_hv_pmos ad=2.1312p pd=7.3u as=3.9294p ps=7.84u w=6.66u l=0.6u
X152 data[1] a_86044_30676# sg13cmos5l_Corner_1.vss sg13cmos5l_Corner_1.vss sg13_hv_nmos ad=2.596p pd=5.58u as=1.408p ps=5.04u w=4.4u l=0.6u
X153 sg13cmos5l_Corner_1.vss adc8b_0.sar12b_0.sg13cmos5l_inv_1_19.A adc8b_0.sar12b_0.sg13cmos5l_buf_1_32.A sg13cmos5l_Corner_1.vss sg13_lv_nmos ad=0.2516p pd=2.16u as=0.2516p ps=2.16u w=0.74u l=0.13u
X154 sg13cmos5l_Corner_1.vss adc8b_0.side_cap8b_0.in_h_sw[2] adc8b_0.side_cap8b_0.buf_16_0.z sg13cmos5l_Corner_1.vss sg13_lv_nmos ad=95f pd=0.88u as=0.17p ps=1.68u w=0.5u l=0.13u
X155 data[1] a_86044_42476# sg13cmos5l_Corner_1.iovdd sg13cmos5l_Corner_1.iovdd sg13_hv_pmos ad=3.9294p pd=7.84u as=2.1312p ps=7.3u w=6.66u l=0.6u
X156 a_90879_95826# adc8b_0.sar12b_0.sg13cmos5l_dfrbp_1_11.Q sg13cmos5l_Corner_1.vss sg13cmos5l_Corner_1.vss sg13_lv_nmos ad=0.2516p pd=2.16u as=0.15055p ps=1.17u w=0.74u l=0.13u
X157 sg13cmos5l_Corner_1.iovdd a_42476_118044# cks sg13cmos5l_Corner_1.iovdd sg13_hv_pmos ad=2.1312p pd=7.3u as=3.9294p ps=7.84u w=6.66u l=0.6u
X158 a_100628_100310# adc8b_0.sar12b_0.sg13cmos5l_buf_1_101.X vdd vdd sg13_lv_pmos ad=0.2856p pd=2.36u as=0.2114p ps=1.54u w=0.84u l=0.13u
X159 a_94906_93986# adc8b_0.sar12b_0.sg13cmos5l_dfrbp_1_0.RESET_B sg13cmos5l_Corner_1.vss sg13cmos5l_Corner_1.vss sg13_lv_nmos ad=37.8f pd=0.6u as=79.8f ps=0.8u w=0.42u l=0.13u
X160 a_93335_98911# a_92493_98813# a_93241_98911# sg13cmos5l_Corner_1.vss sg13_lv_nmos ad=0.12665p pd=1.145u as=0.1428p ps=1.52u w=0.42u l=0.13u
X161 a_82702_98509# adc8b_0.sar12b_0.sg13cmos5l_dfrbp_1_6.RESET_B sg13cmos5l_Corner_1.vss sg13cmos5l_Corner_1.vss sg13_lv_nmos ad=37.8f pd=0.6u as=0.1701p ps=1.65u w=0.42u l=0.13u
X162 cko a_118044_30676# sg13cmos5l_Corner_1.vss sg13cmos5l_Corner_1.vss sg13_hv_nmos ad=2.596p pd=5.58u as=1.408p ps=5.04u w=4.4u l=0.6u
X163 adc8b_0.sar12b_0.sg13cmos5l_nand2_1_2.B adc8b_0.sar12b_0.sg13cmos5l_or2_1_0.A a_82418_95060# vdd sg13_lv_pmos ad=0.3808p pd=2.92u as=0.1176p ps=1.33u w=1.12u l=0.13u
X164 vddr adc8b_0.sar12b_0.nl_sw[0] adc8b_0.side_cap8b_1.buf_32_0.z vddr sg13_lv_pmos ad=0.19p pd=1.38u as=0.19p ps=1.38u w=1u l=0.13u
X165 a_83348_93512# adc8b_0.sar12b_0.sg13cmos5l_buf_1_40.X sg13cmos5l_Corner_1.vss sg13cmos5l_Corner_1.vss sg13_lv_nmos ad=0.187p pd=1.78u as=0.14875p ps=1.16u w=0.55u l=0.13u
X166 vdd sg13cmos5l_IOPadVdd$1_0.sg13cmos5l_Clamp_N43N43D4R$1_0.gate sg13cmos5l_Corner_1.vss sg13cmos5l_Corner_1.vss sg13_hv_nmos ad=2.596p pd=5.58u as=1.408p ps=5.04u w=4.4u l=0.6u
X167 adc8b_0.side_cap8b_0.buf_8_0.z adc8b_0.side_cap8b_0.in_l_sw[4] sg13cmos5l_Corner_1.vss sg13cmos5l_Corner_1.vss sg13_lv_nmos ad=95f pd=0.88u as=95f ps=0.88u w=0.5u l=0.13u
X168 a_98028_97640# a_98002_97545# sg13cmos5l_Corner_1.vss sg13cmos5l_Corner_1.vss sg13_lv_nmos ad=0.2516p pd=2.16u as=0.1626p ps=1.415u w=0.74u l=0.13u
X169 adc8b_0.sar12b_0.sg13cmos5l_buf_1_45.A a_90609_96929# vdd vdd sg13_lv_pmos ad=0.3808p pd=2.92u as=0.2128p ps=1.5u w=1.12u l=0.13u
X170 sg13cmos5l_Corner_1.vss adc8b_0.sar12b_0.nl_sw[3] adc8b_0.side_cap8b_1.buf_8_1.z sg13cmos5l_Corner_1.vss sg13_lv_nmos ad=95f pd=0.88u as=95f ps=0.88u w=0.5u l=0.13u
X171 sg13cmos5l_IOPadAnalog_9.pad a_83639_164698# sg13cmos5l_Corner_1.iovdd sg13cmos5l_Corner_1.iovdd sg13_hv_pmos ad=3.9294p pd=7.84u as=2.1312p ps=7.3u w=6.66u l=0.6u
X172 sg13cmos5l_Corner_1.vss adc8b_0.side_cap8b_0.in_l_sw[0] adc8b_0.side_cap8b_0.buf_32_0.z sg13cmos5l_Corner_1.vss sg13_lv_nmos ad=95f pd=0.88u as=95f ps=0.88u w=0.5u l=0.13u
X173 sg13cmos5l_IOPadVdd$1_0.sg13cmos5l_Clamp_N43N43D4R$1_0.gate sg13cmos5l_IOPadVdd$1_0.sg13cmos5l_RCClampInverter$1_0.in vdd vdd sg13_hv_pmos ad=1.33p pd=7.38u as=1.33p ps=7.38u w=7u l=0.5u
X174 vin a_42476_86044# sg13cmos5l_Corner_1.iovdd sg13cmos5l_Corner_1.iovdd sg13_hv_pmos ad=3.9294p pd=7.84u as=2.1312p ps=7.3u w=6.66u l=0.6u
X175 sg13cmos5l_Corner_1.iovdd a_115639_164698# sg13cmos5l_IOPadAnalog_13.pad sg13cmos5l_Corner_1.iovdd sg13_hv_pmos ad=2.1312p pd=7.3u as=3.9294p ps=7.84u w=6.66u l=0.6u
X176 adc8b_0.side_cap8b_0.buf_16_2.z adc8b_0.side_cap8b_0.in_l_sw[1] vddr vddr sg13_lv_pmos ad=0.19p pd=1.38u as=0.19p ps=1.38u w=1u l=0.13u
X177 sg13cmos5l_Corner_1.vss a_92462_57198# dantenna l=3.1u w=0.64u
X178 sg13cmos5l_Corner_1.iovdd a_164624_86044# sg13cmos5l_IOPadAnalog_0.pad sg13cmos5l_Corner_1.iovdd sg13_hv_pmos ad=2.1312p pd=7.3u as=3.9294p ps=7.84u w=6.66u l=0.6u
X179 adc8b_0.sar12b_0.sg13cmos5l_dfrbp_1_0.D adc8b_0.sar12b_0.sg13cmos5l_nor2_1_1.A sg13cmos5l_Corner_1.vss sg13cmos5l_Corner_1.vss sg13_lv_nmos ad=0.1406p pd=1.12u as=0.2516p ps=2.16u w=0.74u l=0.13u
X180 sg13cmos5l_Corner_1.iovdd a_70044_42476# data[0] sg13cmos5l_Corner_1.iovdd sg13_hv_pmos ad=2.1312p pd=7.3u as=3.9294p ps=7.84u w=6.66u l=0.6u
X181 sg13cmos5l_Corner_1.iovdd a_131639_164698# sg13cmos5l_IOPadAnalog_12.pad sg13cmos5l_Corner_1.iovdd sg13_hv_pmos ad=2.1312p pd=7.3u as=3.9294p ps=7.84u w=6.66u l=0.6u
X182 adc8b_0.side_cap8b_1.buf_8_1.z adc8b_0.sar12b_0.nl_sw[3] vddr vddr sg13_lv_pmos ad=0.19p pd=1.38u as=0.19p ps=1.38u w=1u l=0.13u
X183 sg13cmos5l_Corner_1.vss adc8b_0.sar12b_0.nl_sw[1] adc8b_0.side_cap8b_1.buf_16_2.z sg13cmos5l_Corner_1.vss sg13_lv_nmos ad=95f pd=0.88u as=95f ps=0.88u w=0.5u l=0.13u
X184 vdd a_96311_94375# a_97148_94596# vdd sg13_lv_pmos ad=0.2128p pd=1.5u as=0.3864p ps=2.93u w=1.12u l=0.13u
X185 a_87182_97322# adc8b_0.sar12b_0.sg13cmos5l_dfrbp_1_6.D vdd vdd sg13_lv_pmos ad=79.8f pd=0.8u as=0.1428p ps=1.52u w=0.42u l=0.13u
X186 a_93298_95028# a_93741_95071# a_93681_95107# vdd sg13_lv_pmos ad=79.8f pd=0.8u as=63f ps=0.72u w=0.42u l=0.13u
X187 adc8b_0.side_cap8b_1.buf_8_5.z adc8b_0.sar12b_0.nh_sw[5] vddr vddr sg13_lv_pmos ad=0.19p pd=1.38u as=0.19p ps=1.38u w=1u l=0.13u
X188 a_99468_94616# a_99442_94521# sg13cmos5l_Corner_1.vss sg13cmos5l_Corner_1.vss sg13_lv_nmos ad=0.2516p pd=2.16u as=0.1626p ps=1.415u w=0.74u l=0.13u
X189 vdd sg13cmos5l_IOPadVdd$1_0.sg13cmos5l_Clamp_N43N43D4R$1_0.gate sg13cmos5l_Corner_1.vss sg13cmos5l_Corner_1.vss sg13_hv_nmos ad=2.596p pd=5.58u as=1.408p ps=5.04u w=4.4u l=0.6u
X190 a_76796_95659# adc8b_0.cmp_0.clk vdd vdd sg13_lv_pmos ad=0.17p pd=1.68u as=95f ps=0.88u w=0.5u l=0.13u
X191 sg13cmos5l_Corner_1.vss a_102044_30676# data[2] sg13cmos5l_Corner_1.vss sg13_hv_nmos ad=2.068p pd=9.74u as=2.596p ps=5.58u w=4.4u l=0.6u
X192 sg13cmos5l_Corner_1.vss a_102044_30676# data[2] sg13cmos5l_Corner_1.vss sg13_hv_nmos ad=1.408p pd=5.04u as=2.596p ps=5.58u w=4.4u l=0.6u
X193 data[1] a_86044_42476# sg13cmos5l_Corner_1.iovdd sg13cmos5l_Corner_1.iovdd sg13_hv_pmos ad=3.9294p pd=7.84u as=2.1312p ps=7.3u w=6.66u l=0.6u
X194 adc8b_0.sar12b_0.sg13cmos5l_dlhr_1_0.Q_N a_89982_92768# sg13cmos5l_Corner_1.vss sg13cmos5l_Corner_1.vss sg13_lv_nmos ad=0.2516p pd=2.16u as=0.1491p ps=1.18u w=0.74u l=0.13u
X195 adc8b_0.sar12b_0.sg13cmos5l_nor2_1_1.A a_99356_93548# sg13cmos5l_Corner_1.vss sg13cmos5l_Corner_1.vss sg13_lv_nmos ad=0.2516p pd=2.16u as=0.1406p ps=1.12u w=0.74u l=0.13u
X196 sg13cmos5l_Corner_1.iovdd a_42476_102044# vip sg13cmos5l_Corner_1.iovdd sg13_hv_pmos ad=2.1312p pd=7.3u as=3.9294p ps=7.84u w=6.66u l=0.6u
X197 adc8b_0.sar12b_0.sg13cmos5l_dlhr_1_20.Q_N a_91998_95792# vdd vdd sg13_lv_pmos ad=0.3808p pd=2.92u as=0.1974p ps=1.5u w=1.12u l=0.13u
X198 adc8b_0.side_cap8b_1.buf_16_2.z adc8b_0.sar12b_0.nl_sw[1] vddr vddr sg13_lv_pmos ad=0.19p pd=1.38u as=0.19p ps=1.38u w=1u l=0.13u
X199 vdd adc8b_0.sar12b_0.sg13cmos5l_dfrbp_1_0.RESET_B a_92942_93986# vdd sg13_lv_pmos ad=0.36237p pd=2.605u as=79.8f ps=0.8u w=0.42u l=0.13u