* NGSPICE file created from sar12b_flat.ext - technology: ihp-sg13cmos5l

.subckt sar12b_flat VGND VPWR nh_sw[0] nh_sw[10] nh_sw[1] nh_sw[2] nh_sw[3] nh_sw[4]
+ nh_sw[5] nh_sw[6] nh_sw[7] nh_sw[8] nh_sw[9] nl_sw[0] nl_sw[10] nl_sw[1] nl_sw[2]
+ nl_sw[3] nl_sw[4] nl_sw[5] nl_sw[6] nl_sw[7] nl_sw[8] nl_sw[9] ph_sw[0] ph_sw[10]
+ ph_sw[1] ph_sw[2] ph_sw[3] ph_sw[4] ph_sw[5] ph_sw[6] ph_sw[7] ph_sw[8] ph_sw[9]
+ pl_sw[0] pl_sw[10] pl_sw[1] pl_sw[2] pl_sw[3] pl_sw[4] pl_sw[5] pl_sw[6] pl_sw[7]
+ pl_sw[8] pl_sw[9] ckc cko cks comp_p d_out[0] d_out[1] d_out[2] frame rdy
X0 a_15974_6162# sg13cmos5l_buf_1_57.X VPWR VPWR sg13_lv_pmos ad=79.8f pd=0.8u as=0.1428p ps=1.52u w=0.42u l=0.13u
X1 a_7440_1948# a_6889_1680# VPWR VPWR sg13_lv_pmos ad=0.105p pd=1.21u as=1.86162p ps=11.935u w=1u l=0.13u
X2 VPWR sg13cmos5l_inv_1_27.Y a_14632_9224# VPWR sg13_lv_pmos ad=0.2114p pd=1.54u as=0.2856p ps=2.36u w=0.84u l=0.13u
X3 VGND a_7820_9150# sg13cmos5l_buf_1_73.X VGND sg13_lv_nmos ad=0.14875p pd=1.16u as=0.2886p ps=2.26u w=0.74u l=0.13u
X4 VPWR sg13cmos5l_dfrbp_1_6.RESET_B a_12490_6385# VPWR sg13_lv_pmos ad=0.1563p pd=1.22u as=0.147p ps=1.54u w=0.42u l=0.13u
X5 VPWR a_10473_9186# a_10406_9624# VPWR sg13_lv_pmos ad=0.2387p pd=1.84u as=0.1008p ps=0.9u w=0.42u l=0.13u
X6 VGND a_15429_7653# a_15531_7796# VGND sg13_lv_nmos ad=1.49685p pd=9.6u as=0.2516p ps=2.16u w=0.74u l=0.13u
X7 VPWR a_16940_3102# nh_sw[8] VPWR sg13_lv_pmos ad=0.2114p pd=1.54u as=0.42p ps=2.99u w=1.12u l=0.13u
X8 VPWR a_12976_2630# a_12921_2511# VPWR sg13_lv_pmos ad=1.86162p pd=11.935u as=93.45f ps=0.865u w=0.42u l=0.13u
X9 sg13cmos5l_buf_1_44.A a_5673_3138# VGND VGND sg13_lv_nmos ad=0.2516p pd=2.16u as=0.1406p ps=1.12u w=0.74u l=0.13u
X10 a_13072_4142# a_12815_4261# a_13234_4338# VGND sg13_lv_nmos ad=0.1428p pd=1.52u as=37.8f ps=0.6u w=0.42u l=0.13u
X11 VPWR sg13cmos5l_inv_1_6.A sg13cmos5l_buf_1_0.A VPWR sg13_lv_pmos ad=0.3808p pd=2.92u as=0.3808p ps=2.92u w=1.12u l=0.13u
X12 a_5104_4870# a_4847_4727# a_5266_4650# VGND sg13_lv_nmos ad=0.1428p pd=1.52u as=37.8f ps=0.6u w=0.42u l=0.13u
X13 a_18615_5770# sg13cmos5l_dfrbp_1_8.D VGND VGND sg13_lv_nmos ad=0.2516p pd=2.16u as=0.15055p ps=1.17u w=0.74u l=0.13u
X14 a_11072_5347# sg13cmos5l_nor2_1_0.A VPWR VPWR sg13_lv_pmos ad=0.2856p pd=2.36u as=0.1596p ps=1.22u w=0.84u l=0.13u
X15 VPWR sg13cmos5l_dfrbp_1_21.Q_N a_18793_6216# VPWR sg13_lv_pmos ad=1.07253p pd=6.75u as=0.2856p ps=2.36u w=0.84u l=0.13u
X16 VPWR a_14543_3215# a_15380_3436# VPWR sg13_lv_pmos ad=0.2128p pd=1.5u as=0.3864p ps=2.93u w=1.12u l=0.13u
X17 pl_sw[5] a_7336_9224# VGND VGND sg13_lv_nmos ad=0.2886p pd=2.26u as=0.14875p ps=1.16u w=0.74u l=0.13u
X18 a_11973_1605# sg13cmos5l_dfrbp_1_0.CLK VGND VGND sg13_lv_nmos ad=0.2516p pd=2.16u as=5.84582p ps=38.34u w=0.74u l=0.13u
X19 VPWR a_11973_3911# a_12075_3911# VPWR sg13_lv_pmos ad=1.43437p pd=9.105u as=0.3864p ps=2.93u w=1.12u l=0.13u
X20 VGND a_3407_8797# a_4244_8436# VGND sg13_lv_nmos ad=0.1406p pd=1.12u as=0.2516p ps=2.16u w=0.74u l=0.13u
X21 VPWR a_19209_5769# a_19734_5842# VPWR sg13_lv_pmos ad=0.1974p pd=1.5u as=0.2856p ps=2.36u w=0.84u l=0.13u
X22 sg13cmos5l_dlhr_1_16.Q a_19209_5769# VGND VGND sg13_lv_nmos ad=0.2516p pd=2.16u as=0.1406p ps=1.12u w=0.74u l=0.13u
X23 VPWR a_19340_8400# pl_sw[9] VPWR sg13_lv_pmos ad=0.2114p pd=1.54u as=0.42p ps=2.99u w=1.12u l=0.13u
X24 sg13cmos5l_dlhr_1_2.D a_6479_2749# VGND VGND sg13_lv_nmos ad=0.2849p pd=2.25u as=0.2516p ps=2.16u w=0.74u l=0.13u
X25 a_13100_8400# sg13cmos5l_buf_1_90.X VGND VGND sg13_lv_nmos ad=0.187p pd=1.78u as=0.14875p ps=1.16u w=0.55u l=0.13u
X26 a_10071_7282# sg13cmos5l_dfrbp_1_18.Q VGND VGND sg13_lv_nmos ad=0.2516p pd=2.16u as=0.15055p ps=1.17u w=0.74u l=0.13u
X27 VPWR a_10288_8678# a_10233_8559# VPWR sg13_lv_pmos ad=1.15047p pd=7.175u as=93.45f ps=0.865u w=0.42u l=0.13u
X28 a_13701_3117# sg13cmos5l_dfrbp_1_0.CLK VGND VGND sg13_lv_nmos ad=0.2516p pd=2.16u as=2.43055p ps=15.415u w=0.74u l=0.13u
X29 a_1484_9150# sg13cmos5l_inv_1_19.A VGND VGND sg13_lv_nmos ad=0.187p pd=1.78u as=0.14875p ps=1.16u w=0.55u l=0.13u
X30 a_934_7349# sg13cmos5l_dfrbp_1_6.RESET_B VGND VGND sg13_lv_nmos ad=37.8f pd=0.6u as=0.1701p ps=1.65u w=0.42u l=0.13u
X31 VPWR a_14889_7281# a_14822_6924# VPWR sg13_lv_pmos ad=0.2387p pd=1.84u as=0.1008p ps=0.9u w=0.42u l=0.13u
X32 sg13cmos5l_buf_1_19.A a_18856_8436# VPWR VPWR sg13_lv_pmos ad=0.42p pd=2.99u as=0.2114p ps=1.54u w=1.12u l=0.13u
X33 a_16068_6928# a_16042_6892# VPWR VPWR sg13_lv_pmos ad=0.34p pd=2.68u as=0.36237p ps=2.605u w=1u l=0.13u
X34 VPWR a_16748_9150# pl_sw[7] VPWR sg13_lv_pmos ad=0.2114p pd=1.54u as=0.42p ps=2.99u w=1.12u l=0.13u
X35 sg13cmos5l_buf_1_96.A a_10665_7281# VGND VGND sg13_lv_nmos ad=0.2516p pd=2.16u as=0.1406p ps=1.12u w=0.74u l=0.13u
X36 a_14889_7281# a_14708_6924# VPWR VPWR sg13_lv_pmos ad=0.2128p pd=1.5u as=0.2387p ps=1.84u w=1.12u l=0.13u
X37 a_6898_2826# sg13cmos5l_dfrbp_1_6.RESET_B VGND VGND sg13_lv_nmos ad=37.8f pd=0.6u as=79.8f ps=0.8u w=0.42u l=0.13u
X38 a_11530_1849# a_11973_1605# a_11913_2017# VPWR sg13_lv_pmos ad=79.8f pd=0.8u as=63f ps=0.72u w=0.42u l=0.13u
X39 VGND sg13cmos5l_buf_1_111.A a_18376_9224# VGND sg13_lv_nmos ad=0.14875p pd=1.16u as=0.187p ps=1.78u w=0.55u l=0.13u
X40 a_16677_6141# sg13cmos5l_dfrbp_1_8.D VPWR VPWR sg13_lv_pmos ad=0.4088p pd=2.97u as=1.04815p ps=6.595u w=1.12u l=0.13u
X41 a_13284_3456# a_13258_3361# VPWR VPWR sg13_lv_pmos ad=0.34p pd=2.68u as=0.36237p ps=2.605u w=1u l=0.13u
X42 a_16271_7751# a_15429_7653# a_16177_7751# VGND sg13_lv_nmos ad=0.12665p pd=1.145u as=0.1428p ps=1.52u w=0.42u l=0.13u
X43 VPWR a_7689_1626# a_7622_2064# VPWR sg13_lv_pmos ad=0.2387p pd=1.84u as=0.1008p ps=0.9u w=0.42u l=0.13u
X44 VGND a_9705_4650# a_9660_4686# VGND sg13_lv_nmos ad=0.1428p pd=1.52u as=47.25f ps=0.645u w=0.42u l=0.13u
X45 sg13cmos5l_dfrbp_1_12.Q_N a_7055_4261# VGND VGND sg13_lv_nmos ad=0.2849p pd=2.25u as=0.2516p ps=2.16u w=0.74u l=0.13u
X46 sg13cmos5l_nor2_1_2.A sg13cmos5l_inv_1_9.Y VPWR VPWR sg13_lv_pmos ad=0.3808p pd=2.92u as=0.3808p ps=2.92u w=1.12u l=0.13u
X47 VGND a_2565_8447# a_2667_8447# VGND sg13_lv_nmos ad=2.92392p pd=18.89u as=0.2516p ps=2.16u w=0.74u l=0.13u
X48 a_1997_6126# a_2727_6380# a_2748_6126# VGND sg13_lv_nmos ad=0.12665p pd=1.145u as=0.3473p ps=2.71u w=0.74u l=0.13u
X49 VGND VPWR VGND VGND sg13_lv_nmos ad=0.1428p pd=1.52u as=0.40368n ps=2.16158m w=0.42u l=1u
X50 a_15702_4187# a_15821_3864# VPWR VPWR sg13_lv_pmos ad=0.3864p pd=2.93u as=0.2128p ps=1.5u w=1.12u l=0.13u
X51 a_10031_8797# a_9189_8447# a_9937_8797# VGND sg13_lv_nmos ad=0.12665p pd=1.145u as=0.1428p ps=1.52u w=0.42u l=0.13u
X52 a_5414_6162# sg13cmos5l_dfrbp_1_6.D VPWR VPWR sg13_lv_pmos ad=79.8f pd=0.8u as=0.1428p ps=1.52u w=0.42u l=0.13u
X53 VPWR a_15429_7653# a_15531_7796# VPWR sg13_lv_pmos ad=1.15047p pd=7.175u as=0.3864p ps=2.93u w=1.12u l=0.13u
X54 VPWR a_1967_7285# a_2804_6924# VPWR sg13_lv_pmos ad=0.2128p pd=1.5u as=0.3864p ps=2.93u w=1.12u l=0.13u
X55 nl_sw[3] a_4456_1664# VGND VGND sg13_lv_nmos ad=0.2886p pd=2.26u as=0.14875p ps=1.16u w=0.74u l=0.13u
X56 VGND sg13cmos5l_nor2_1_0.A a_12814_4692# VGND sg13_lv_nmos ad=0.17255p pd=1.25u as=0.187p ps=1.78u w=0.55u l=0.13u
X57 sg13cmos5l_buf_1_78.X a_6184_9224# VPWR VPWR sg13_lv_pmos ad=0.42p pd=2.99u as=0.2114p ps=1.54u w=1.12u l=0.13u
X58 a_12980_6924# a_12567_7282# a_12912_6924# VPWR sg13_lv_pmos ad=0.191p pd=1.44u as=0.105p ps=1.21u w=1u l=0.13u
X59 VGND a_1402_3864# a_1121_4166# VGND sg13_lv_nmos ad=79.8f pd=0.8u as=0.1428p ps=1.52u w=0.42u l=0.5u
X60 a_9940_4636# a_9524_4972# a_9705_4650# VGND sg13_lv_nmos ad=77.7f pd=0.95u as=0.2516p ps=2.16u w=0.74u l=0.13u
X61 a_2732_1590# sg13cmos5l_buf_1_37.A VGND VGND sg13_lv_nmos ad=0.187p pd=1.78u as=0.14875p ps=1.16u w=0.55u l=0.13u
X62 a_11556_1944# a_12075_1748# a_12815_1703# VGND sg13_lv_nmos ad=0.3473p pd=2.71u as=0.12665p ps=1.145u w=0.74u l=0.13u
X63 a_2566_3151# sg13cmos5l_dfrbp_1_6.RESET_B VGND VGND sg13_lv_nmos ad=37.8f pd=0.6u as=0.1701p ps=1.65u w=0.42u l=0.13u
X64 VGND sg13cmos5l_buf_1_5.A sg13cmos5l_inv_1_27.Y VGND sg13_lv_nmos ad=0.2516p pd=2.16u as=0.2516p ps=2.16u w=0.74u l=0.13u
X65 a_11973_1605# sg13cmos5l_dfrbp_1_0.CLK VPWR VPWR sg13_lv_pmos ad=0.4088p pd=2.97u as=1.777p ps=11.395u w=1.12u l=0.13u
X66 a_3575_6553# a_2879_6432# a_3669_6320# VGND sg13_lv_nmos ad=0.1296p pd=1.52u as=79.8f ps=0.8u w=0.42u l=0.13u
X67 a_4652_6126# sg13cmos5l_buf_1_59.A VGND VGND sg13_lv_nmos ad=0.187p pd=1.78u as=0.14875p ps=1.16u w=0.55u l=0.13u
X68 a_5673_3138# a_5492_3460# VPWR VPWR sg13_lv_pmos ad=0.2128p pd=1.5u as=0.2387p ps=1.84u w=1.12u l=0.13u
X69 a_10224_9508# a_9673_9240# VPWR VPWR sg13_lv_pmos ad=0.105p pd=1.21u as=4.11675p ps=27.17u w=1u l=0.13u
X70 sg13cmos5l_dlhr_1_1.Q a_2409_4650# VGND VGND sg13_lv_nmos ad=0.2516p pd=2.16u as=0.1406p ps=1.12u w=0.74u l=0.13u
X71 VPWR sg13cmos5l_dlhr_1_0.D a_6889_1680# VPWR sg13_lv_pmos ad=1.86162p pd=11.935u as=0.2856p ps=2.36u w=0.84u l=0.13u
X72 a_19090_1626# sg13cmos5l_dfrbp_1_0.RESET_B VGND VGND sg13_lv_nmos ad=37.8f pd=0.6u as=79.8f ps=0.8u w=0.42u l=0.13u
X73 a_17493_3947# a_16551_3987# a_17354_4180# VGND sg13_lv_nmos ad=79.8f pd=0.8u as=0.2373p ps=1.97u w=0.42u l=0.13u
X74 a_5132_3864# sg13cmos5l_buf_1_44.A VGND VGND sg13_lv_nmos ad=0.187p pd=1.78u as=0.14875p ps=1.16u w=0.55u l=0.13u
X75 VGND VPWR VGND VGND sg13_lv_nmos ad=0.1428p pd=1.52u as=0 ps=0 w=0.42u l=1u
X76 VPWR sg13cmos5l_dfrbp_1_6.RESET_B a_2314_3361# VPWR sg13_lv_pmos ad=0.1563p pd=1.22u as=0.147p ps=1.54u w=0.42u l=0.13u
X77 sg13cmos5l_dlhr_1_16.Q a_19209_5769# VPWR VPWR sg13_lv_pmos ad=0.3808p pd=2.92u as=0.2128p ps=1.5u w=1.12u l=0.13u
X78 a_13701_3117# sg13cmos5l_dfrbp_1_0.CLK VPWR VPWR sg13_lv_pmos ad=0.4088p pd=2.97u as=1.38655p ps=8.8u w=1.12u l=0.13u
X79 a_1967_5773# a_1125_5423# a_1873_5773# VGND sg13_lv_nmos ad=0.12665p pd=1.145u as=0.1428p ps=1.52u w=0.42u l=0.13u
X80 a_14295_7282# sg13cmos5l_dfrbp_1_23.CLK VPWR VPWR sg13_lv_pmos ad=0.3234p pd=2.45u as=1.04815p ps=6.595u w=0.84u l=0.13u
X81 sg13cmos5l_dlhr_1_12.D a_16271_7751# VPWR VPWR sg13_lv_pmos ad=0.4312p pd=3.01u as=0.2639p ps=1.81u w=1.12u l=0.13u
X82 VPWR a_17327_7285# a_18164_6924# VPWR sg13_lv_pmos ad=0.2128p pd=1.5u as=0.3864p ps=2.93u w=1.12u l=0.13u
X83 VPWR a_15177_5769# a_15702_5842# VPWR sg13_lv_pmos ad=0.1974p pd=1.5u as=0.2856p ps=2.36u w=0.84u l=0.13u
X84 a_16748_9150# sg13cmos5l_buf_1_93.X VPWR VPWR sg13_lv_pmos ad=0.2856p pd=2.36u as=0.2114p ps=1.54u w=0.84u l=0.13u
X85 VPWR a_7689_1626# a_8214_1608# VPWR sg13_lv_pmos ad=0.1974p pd=1.5u as=0.2856p ps=2.36u w=0.84u l=0.13u
X86 a_13460_7996# a_13178_7684# a_13393_7666# VGND sg13_lv_nmos ad=0.141p pd=1.17u as=71.99999f ps=0.865u w=0.64u l=0.13u
X87 a_1402_3864# sg13cmos5l_dlygate4sd2_1_0.X VPWR VPWR sg13_lv_pmos ad=0.1428p pd=1.52u as=0.1523p ps=1.38u w=0.42u l=0.13u
X88 VPWR a_12716_8400# ph_sw[5] VPWR sg13_lv_pmos ad=0.2114p pd=1.54u as=0.42p ps=2.99u w=1.12u l=0.13u
X89 a_12324_6162# sg13cmos5l_buf_1_57.X a_12230_6162# VGND sg13_lv_nmos ad=60.89999f pd=0.71u as=0.1428p ps=1.52u w=0.42u l=0.13u
X90 a_6117_6141# sg13cmos5l_dlhr_1_5.GATE VPWR VPWR sg13_lv_pmos ad=0.4088p pd=2.97u as=1.04815p ps=6.595u w=1.12u l=0.13u
X91 VPWR sg13cmos5l_dfrbp_1_6.RESET_B a_8457_7281# VPWR sg13_lv_pmos ad=0.2128p pd=1.5u as=0.2128p ps=1.5u w=1.12u l=0.13u
X92 VGND a_12549_9165# a_12651_9308# VGND sg13_lv_nmos ad=2.92392p pd=18.89u as=0.2516p ps=2.16u w=0.74u l=0.13u
X93 VPWR a_18860_9150# ph_sw[8] VPWR sg13_lv_pmos ad=0.2114p pd=1.54u as=0.42p ps=2.99u w=1.12u l=0.13u
X94 VPWR sg13cmos5l_buf_1_96.A a_11464_8436# VPWR sg13_lv_pmos ad=0.2114p pd=1.54u as=0.2856p ps=2.36u w=0.84u l=0.13u
X95 sg13cmos5l_dfrbp_1_1.D sg13cmos5l_a22oi_1_2.B2 a_9823_2780# VGND sg13_lv_nmos ad=0.2664p pd=1.46u as=0.13875p ps=1.115u w=0.74u l=0.13u
X96 VPWR a_16751_2749# a_17588_2388# VPWR sg13_lv_pmos ad=0.2128p pd=1.5u as=0.3864p ps=2.93u w=1.12u l=0.13u
X97 sg13cmos5l_dlhr_1_0.D a_7316_2388# VGND VGND sg13_lv_nmos ad=0.2516p pd=2.16u as=0.1406p ps=1.12u w=0.74u l=0.13u
X98 a_2122_8404# a_2565_8447# a_1862_8874# VGND sg13_lv_nmos ad=79.8f pd=0.8u as=0.1296p ps=1.52u w=0.42u l=0.13u
X99 a_17367_8794# sg13cmos5l_dfrbp_1_22.D VPWR VPWR sg13_lv_pmos ad=0.3234p pd=2.45u as=1.12242p ps=7u w=0.84u l=0.13u
X100 sg13cmos5l_buf_1_25.A sg13cmos5l_inv_1_14.A VGND VGND sg13_lv_nmos ad=0.2516p pd=2.16u as=0.2516p ps=2.16u w=0.74u l=0.13u
X101 a_20204_5376# sg13cmos5l_dlhr_1_16.Q VPWR VPWR sg13_lv_pmos ad=0.2856p pd=2.36u as=0.2114p ps=1.54u w=0.84u l=0.13u
X102 VPWR rdy a_424_8436# VPWR sg13_lv_pmos ad=0.2114p pd=1.54u as=0.2856p ps=2.36u w=0.84u l=0.13u
X103 sg13cmos5l_buf_1_87.A a_18376_9224# VPWR VPWR sg13_lv_pmos ad=0.42p pd=2.99u as=0.2114p ps=1.54u w=1.12u l=0.13u
X104 a_6479_2749# a_5637_2399# a_6385_2749# VGND sg13_lv_nmos ad=0.12665p pd=1.145u as=0.1428p ps=1.52u w=0.42u l=0.13u
X105 a_7888_4870# a_7631_4727# a_8050_4650# VGND sg13_lv_nmos ad=0.1428p pd=1.52u as=37.8f ps=0.6u w=0.42u l=0.13u
X106 VGND a_2831_7630# a_2786_7666# VGND sg13_lv_nmos ad=1.49685p pd=9.6u as=71.99999f ps=0.865u w=0.64u l=0.13u
X107 frame a_20008_7712# VGND VGND sg13_lv_nmos ad=0.2886p pd=2.26u as=0.14875p ps=1.16u w=0.74u l=0.13u
X108 a_6598_4663# sg13cmos5l_dfrbp_1_8.RESET_B VGND VGND sg13_lv_nmos ad=37.8f pd=0.6u as=0.1701p ps=1.65u w=0.42u l=0.13u
X109 a_1125_6935# sg13cmos5l_dfrbp_1_15.D VGND VGND sg13_lv_nmos ad=0.2516p pd=2.16u as=1.49685p ps=9.6u w=0.74u l=0.13u
X110 a_20012_2352# sg13cmos5l_buf_1_0.X VPWR VPWR sg13_lv_pmos ad=0.2856p pd=2.36u as=0.2114p ps=1.54u w=0.84u l=0.13u
X111 a_8486_8874# a_9291_8447# a_8746_8404# VPWR sg13_lv_pmos ad=0.1428p pd=1.52u as=79.8f ps=0.8u w=0.42u l=0.13u
X112 VPWR a_15887_8797# a_16724_8436# VPWR sg13_lv_pmos ad=0.2128p pd=1.5u as=0.3864p ps=2.93u w=1.12u l=0.13u
X113 VGND comp_p a_424_1664# VGND sg13_lv_nmos ad=0.14875p pd=1.16u as=0.187p ps=1.78u w=0.55u l=0.13u
X114 VPWR a_3664_4142# a_3609_4023# VPWR sg13_lv_pmos ad=1.43437p pd=9.105u as=93.45f ps=0.865u w=0.42u l=0.13u
X115 nh_sw[1] a_2824_2388# VGND VGND sg13_lv_nmos ad=0.2886p pd=2.26u as=0.14875p ps=1.16u w=0.74u l=0.13u
X116 VPWR sg13cmos5l_dfrbp_1_0.RESET_B a_17414_3138# VPWR sg13_lv_pmos ad=0.36237p pd=2.605u as=79.8f ps=0.8u w=0.42u l=0.13u
X117 a_2122_3868# a_2565_3911# a_2505_3947# VPWR sg13_lv_pmos ad=79.8f pd=0.8u as=63f ps=0.72u w=0.42u l=0.13u
X118 VGND a_4460_9150# sg13cmos5l_buf_1_60.X VGND sg13_lv_nmos ad=0.14875p pd=1.16u as=0.2886p ps=2.26u w=0.74u l=0.13u
X119 a_11846_9186# sg13cmos5l_dlhr_1_11.GATE VPWR VPWR sg13_lv_pmos ad=79.8f pd=0.8u as=0.1428p ps=1.52u w=0.42u l=0.13u
X120 a_3801_3453# a_2859_3260# a_3599_3215# VPWR sg13_lv_pmos ad=93.45f pd=0.865u as=0.2048p ps=1.63u w=0.42u l=0.13u
X121 a_13234_4338# sg13cmos5l_dfrbp_1_0.RESET_B VGND VGND sg13_lv_nmos ad=37.8f pd=0.6u as=79.8f ps=0.8u w=0.42u l=0.13u
X122 a_17751_7690# sg13cmos5l_dfrbp_1_22.D VGND VGND sg13_lv_nmos ad=0.2516p pd=2.16u as=0.15055p ps=1.17u w=0.74u l=0.13u
X123 a_7316_3460# a_7034_3148# a_7249_3130# VGND sg13_lv_nmos ad=0.141p pd=1.17u as=71.99999f ps=0.865u w=0.64u l=0.13u
X124 sg13cmos5l_buf_1_116.A a_15177_5769# VPWR VPWR sg13_lv_pmos ad=0.3808p pd=2.92u as=0.2128p ps=1.5u w=1.12u l=0.13u
X125 VPWR sg13cmos5l_dfrbp_1_15.D a_2621_7636# VPWR sg13_lv_pmos ad=1.15047p pd=7.175u as=0.3234p ps=2.45u w=0.84u l=0.13u
X126 a_14928_5412# a_14377_5770# VPWR VPWR sg13_lv_pmos ad=0.105p pd=1.21u as=1.28962p ps=8.195u w=1u l=0.13u
X127 a_7247_8797# a_6405_8447# a_5988_8440# VPWR sg13_lv_pmos ad=0.2048p pd=1.63u as=0.34p ps=2.68u w=1u l=0.13u
X128 ph_sw[2] a_3976_9224# VGND VGND sg13_lv_nmos ad=0.2886p pd=2.26u as=0.14875p ps=1.16u w=0.74u l=0.13u
X129 a_18196_8824# a_17780_8436# a_17961_8793# VGND sg13_lv_nmos ad=77.7f pd=0.95u as=0.2516p ps=2.16u w=0.74u l=0.13u
X130 a_8204_2352# sg13cmos5l_dlhr_1_2.Q VGND VGND sg13_lv_nmos ad=0.187p pd=1.78u as=0.14875p ps=1.16u w=0.55u l=0.13u
X131 a_5104_4870# sg13cmos5l_dfrbp_1_8.RESET_B VPWR VPWR sg13_lv_pmos ad=79.8f pd=0.8u as=1.2517p ps=7.955u w=0.42u l=0.13u
X132 sg13cmos5l_buf_1_59.A a_4425_7281# VPWR VPWR sg13_lv_pmos ad=0.3808p pd=2.92u as=0.2128p ps=1.5u w=1.12u l=0.13u
X133 a_16485_6935# sg13cmos5l_inv_1_2.A VGND VGND sg13_lv_nmos ad=0.2516p pd=2.16u as=1.49685p ps=9.6u w=0.74u l=0.13u
X134 a_17392_4870# a_17135_4727# a_17554_4650# VGND sg13_lv_nmos ad=0.1428p pd=1.52u as=37.8f ps=0.6u w=0.42u l=0.13u
X135 a_18860_9150# sg13cmos5l_buf_1_101.X VPWR VPWR sg13_lv_pmos ad=0.2856p pd=2.36u as=0.2114p ps=1.54u w=0.84u l=0.13u
X136 sg13cmos5l_dfrbp_1_7.Q_N a_14543_3215# VGND VGND sg13_lv_nmos ad=0.2849p pd=2.25u as=0.2516p ps=2.16u w=0.74u l=0.13u
X137 a_3575_6553# sg13cmos5l_dfrbp_1_15.D a_4322_6162# VGND sg13_lv_nmos ad=0.1428p pd=1.52u as=60.89999f ps=0.71u w=0.42u l=0.13u
X138 VPWR sg13cmos5l_buf_1_5.A sg13cmos5l_inv_1_27.Y VPWR sg13_lv_pmos ad=0.3808p pd=2.92u as=0.3808p ps=2.92u w=1.12u l=0.13u
X139 a_7095_1642# sg13cmos5l_dlhr_1_0.GATE VGND VGND sg13_lv_nmos ad=0.2516p pd=2.16u as=0.15055p ps=1.17u w=0.74u l=0.13u
X140 a_2697_3529# a_2340_3456# VPWR VPWR sg13_lv_pmos ad=63f pd=0.72u as=0.1563p ps=1.22u w=0.42u l=0.13u
X141 VGND a_5104_4870# a_4753_4727# VGND sg13_lv_nmos ad=79.8f pd=0.8u as=0.1428p ps=1.52u w=0.42u l=0.13u
X142 sg13cmos5l_nor2_1_0.A a_13556_2388# VPWR VPWR sg13_lv_pmos ad=0.3808p pd=2.92u as=0.2128p ps=1.5u w=1.12u l=0.13u
X143 VGND sg13cmos5l_dfrbp_1_21.Q a_18409_5770# VGND sg13_lv_nmos ad=0.15055p pd=1.17u as=0.187p ps=1.78u w=0.55u l=0.13u
X144 a_13698_5412# sg13cmos5l_dfrbp_1_23.Q a_13486_5412# VPWR sg13_lv_pmos ad=0.2128p pd=1.5u as=0.2128p ps=1.5u w=1.12u l=0.13u
X145 a_19526_6600# a_19130_6172# a_19412_6484# VPWR sg13_lv_pmos ad=0.1008p pd=0.9u as=0.191p ps=1.44u w=0.42u l=0.13u
X146 VPWR a_17776_6382# a_17721_6477# VPWR sg13_lv_pmos ad=1.07253p pd=6.75u as=93.45f ps=0.865u w=0.42u l=0.13u
X147 VPWR a_16268_3102# nl_sw[8] VPWR sg13_lv_pmos ad=0.2114p pd=1.54u as=0.42p ps=2.99u w=1.12u l=0.13u
X148 VPWR a_6213_3911# a_6315_3911# VPWR sg13_lv_pmos ad=1.43437p pd=9.105u as=0.3864p ps=2.93u w=1.12u l=0.13u
X149 VGND sg13cmos5l_dfrbp_1_0.RESET_B a_11268_2826# VGND sg13_lv_nmos ad=0.1626p pd=1.415u as=60.89999f ps=0.71u w=0.42u l=0.13u
X150 VGND a_17493_3947# a_16572_4261# VGND sg13_lv_nmos ad=0.1626p pd=1.415u as=0.2516p ps=2.16u w=0.74u l=0.13u
X151 VGND sg13cmos5l_buf_1_65.X a_8488_9224# VGND sg13_lv_nmos ad=0.14875p pd=1.16u as=0.187p ps=1.78u w=0.55u l=0.13u
X152 a_708_6928# a_682_6892# VGND VGND sg13_lv_nmos ad=0.2516p pd=2.16u as=0.1626p ps=1.415u w=0.74u l=0.13u
X153 a_1948_7964# sg13cmos5l_dfrbp_1_6.RESET_B VPWR VPWR sg13_lv_pmos ad=0.2128p pd=1.5u as=0.2128p ps=1.5u w=1.12u l=0.13u
X154 a_19161_3453# a_18219_3260# a_18959_3215# VPWR sg13_lv_pmos ad=93.45f pd=0.865u as=0.2048p ps=1.63u w=0.42u l=0.13u
X155 VPWR a_4041_2745# a_3974_2388# VPWR sg13_lv_pmos ad=0.2387p pd=1.84u as=0.1008p ps=0.9u w=0.42u l=0.13u
X156 a_16260_6480# a_16779_6284# a_17519_6239# VGND sg13_lv_nmos ad=0.3473p pd=2.71u as=0.12665p ps=1.145u w=0.74u l=0.13u
X157 VGND a_1484_6126# sg13cmos5l_buf_1_40.A VGND sg13_lv_nmos ad=0.14875p pd=1.16u as=0.2886p ps=2.26u w=0.74u l=0.13u
X158 VGND sg13cmos5l_inv_1_3.A a_15016_9224# VGND sg13_lv_nmos ad=0.14875p pd=1.16u as=0.187p ps=1.78u w=0.55u l=0.13u
X159 VPWR a_18671_1703# a_18928_1846# VPWR sg13_lv_pmos ad=0.2639p pd=1.81u as=79.8f ps=0.8u w=0.42u l=0.13u
X160 VGND sg13cmos5l_dfrbp_1_8.RESET_B a_11940_9186# VGND sg13_lv_nmos ad=0.1626p pd=1.415u as=60.89999f ps=0.71u w=0.42u l=0.13u
X161 VPWR a_9033_6162# a_8966_6600# VPWR sg13_lv_pmos ad=0.2387p pd=1.84u as=0.1008p ps=0.9u w=0.42u l=0.13u
X162 a_12913_7326# a_12361_7282# VGND VGND sg13_lv_nmos ad=71.99999f pd=0.865u as=1.49685p ps=9.6u w=0.64u l=0.13u
X163 a_5508_2813# a_5220_2392# a_5446_2813# VGND sg13_lv_nmos ad=0.1428p pd=1.52u as=37.8f ps=0.6u w=0.42u l=0.13u
X164 VGND a_19593_6162# a_19548_6198# VGND sg13_lv_nmos ad=0.1428p pd=1.52u as=47.25f ps=0.645u w=0.42u l=0.13u
X165 a_18057_3529# a_17700_3456# VPWR VPWR sg13_lv_pmos ad=63f pd=0.72u as=0.1563p ps=1.22u w=0.42u l=0.13u
X166 VGND a_7631_4727# a_8468_4948# VGND sg13_lv_nmos ad=0.1406p pd=1.12u as=0.2516p ps=2.16u w=0.74u l=0.13u
X167 VPWR VGND VPWR VPWR sg13_lv_pmos ad=0.34p pd=2.68u as=0.43217n ps=2.29179m w=1u l=1u
X168 VPWR a_10473_9186# a_10998_9168# VPWR sg13_lv_pmos ad=0.1974p pd=1.5u as=0.2856p ps=2.36u w=0.84u l=0.13u
X169 a_17220_1626# sg13cmos5l_dfrbp_1_0.D a_17126_1626# VGND sg13_lv_nmos ad=60.89999f pd=0.71u as=0.1428p ps=1.52u w=0.42u l=0.13u
X170 VPWR a_620_7638# pl_sw[0] VPWR sg13_lv_pmos ad=0.2114p pd=1.54u as=0.42p ps=2.99u w=1.12u l=0.13u
X171 a_10665_8065# a_10308_7992# VPWR VPWR sg13_lv_pmos ad=63f pd=0.72u as=0.1563p ps=1.22u w=0.42u l=0.13u
X172 VPWR a_14800_3358# a_14745_3453# VPWR sg13_lv_pmos ad=1.43437p pd=9.105u as=93.45f ps=0.865u w=0.42u l=0.13u
X173 VGND sg13cmos5l_nor2_1_1.A a_15439_1630# VGND sg13_lv_nmos ad=0.14505p pd=1.15u as=0.1406p ps=1.12u w=0.74u l=0.13u
X174 a_2148_3138# sg13cmos5l_dfrbp_1_6.D a_2054_3138# VGND sg13_lv_nmos ad=60.89999f pd=0.71u as=0.1428p ps=1.52u w=0.42u l=0.13u
X175 a_3860_2388# a_3578_2752# a_3793_2790# VGND sg13_lv_nmos ad=0.141p pd=1.17u as=71.99999f ps=0.865u w=0.64u l=0.13u
X176 sg13cmos5l_dlygate4sd2_1_0.A sg13cmos5l_inv_1_8.Y VPWR VPWR sg13_lv_pmos ad=0.2128p pd=1.5u as=0.3808p ps=2.92u w=1.12u l=0.13u
X177 a_1065_5459# a_708_5416# VPWR VPWR sg13_lv_pmos ad=63f pd=0.72u as=0.1563p ps=1.22u w=0.42u l=0.13u
X178 VGND a_5132_9150# sg13cmos5l_buf_1_64.A VGND sg13_lv_nmos ad=0.14875p pd=1.16u as=0.2886p ps=2.26u w=0.74u l=0.13u
X179 a_1862_8874# a_2667_8447# a_2122_8404# VPWR sg13_lv_pmos ad=0.1428p pd=1.52u as=79.8f ps=0.8u w=0.42u l=0.13u
X180 a_13392_7996# a_12841_7728# VPWR VPWR sg13_lv_pmos ad=0.105p pd=1.21u as=1.15047p ps=7.175u w=1u l=0.13u
X181 VGND sg13cmos5l_dfrbp_1_6.RESET_B a_8692_7312# VGND sg13_lv_nmos ad=0.1406p pd=1.12u as=77.7f ps=0.95u w=0.74u l=0.13u
X182 a_13284_3456# a_13803_3260# a_14543_3215# VGND sg13_lv_nmos ad=0.3473p pd=2.71u as=0.12665p ps=1.145u w=0.74u l=0.13u
X183 sg13cmos5l_nand2_1_2.B sg13cmos5l_or2_1_0.A a_650_3900# VPWR sg13_lv_pmos ad=0.3808p pd=2.92u as=0.1176p ps=1.33u w=1.12u l=0.13u
X184 VGND a_4425_7281# a_4950_7354# VGND sg13_lv_nmos ad=0.1491p pd=1.18u as=0.187p ps=1.78u w=0.55u l=0.13u
X185 VPWR sg13cmos5l_dfrbp_1_0.RESET_B a_17386_1849# VPWR sg13_lv_pmos ad=0.1563p pd=1.22u as=0.147p ps=1.54u w=0.42u l=0.13u
X186 a_14628_8440# a_14602_8404# VPWR VPWR sg13_lv_pmos ad=0.34p pd=2.68u as=0.36237p ps=2.605u w=1u l=0.13u
X187 a_20492_8400# sg13cmos5l_buf_1_104.X VGND VGND sg13_lv_nmos ad=0.187p pd=1.78u as=0.14875p ps=1.16u w=0.55u l=0.13u
X188 a_13486_5412# sg13cmos5l_nor2b_1_0.Y VPWR VPWR sg13_lv_pmos ad=0.2128p pd=1.5u as=0.3808p ps=2.92u w=1.12u l=0.13u
X189 sg13cmos5l_dfrbp_1_6.D a_1672_3176# VGND VGND sg13_lv_nmos ad=0.2886p pd=2.26u as=0.14875p ps=1.16u w=0.74u l=0.13u
X190 sg13cmos5l_buf_1_98.A a_13641_7674# VPWR VPWR sg13_lv_pmos ad=0.3808p pd=2.92u as=0.2128p ps=1.5u w=1.12u l=0.13u
X191 VPWR a_1997_6126# sg13cmos5l_dfrbp_1_15.Q_N VPWR sg13_lv_pmos ad=0.2639p pd=1.81u as=0.4312p ps=3.01u w=1.12u l=0.13u
X192 d_out[1] a_20008_3900# VPWR VPWR sg13_lv_pmos ad=0.42p pd=2.99u as=0.2114p ps=1.54u w=1.12u l=0.13u
X193 VPWR a_4950_5699# sg13cmos5l_dlhr_1_5.GATE VPWR sg13_lv_pmos ad=0.2128p pd=1.5u as=0.3808p ps=2.92u w=1.12u l=0.13u
X194 a_6572_1590# sg13cmos5l_buf_1_24.A VPWR VPWR sg13_lv_pmos ad=0.2856p pd=2.36u as=0.2114p ps=1.54u w=0.84u l=0.13u
X195 a_8966_6600# a_8570_6172# a_8852_6484# VPWR sg13_lv_pmos ad=0.1008p pd=0.9u as=0.191p ps=1.44u w=0.42u l=0.13u
X196 sg13cmos5l_buf_1_97.A a_10473_9186# VGND VGND sg13_lv_nmos ad=0.2516p pd=2.16u as=0.1406p ps=1.12u w=0.74u l=0.13u
X197 a_10331_1924# sg13cmos5l_nand2_1_1.B sg13cmos5l_a22oi_1_2.B1 VPWR sg13_lv_pmos ad=0.2128p pd=1.5u as=0.3808p ps=2.92u w=1.12u l=0.13u
X198 VGND sg13cmos5l_dfrbp_1_6.RESET_B a_516_5850# VGND sg13_lv_nmos ad=0.1626p pd=1.415u as=60.89999f ps=0.71u w=0.42u l=0.13u
X199 sg13cmos5l_a221oi_1_0.A2 a_7892_3900# VPWR VPWR sg13_lv_pmos ad=0.3808p pd=2.92u as=0.2128p ps=1.5u w=1.12u l=0.13u
X200 a_18300_7710# a_17751_7690# a_18164_7996# VGND sg13_lv_nmos ad=47.25f pd=0.645u as=0.141p ps=1.17u w=0.42u l=0.13u
X201 VPWR sg13cmos5l_dfrbp_1_8.RESET_B a_14602_8404# VPWR sg13_lv_pmos ad=0.1563p pd=1.22u as=0.147p ps=1.54u w=0.42u l=0.13u
X202 sg13cmos5l_dfrbp_1_1.Q a_13652_1924# VGND VGND sg13_lv_nmos ad=0.2516p pd=2.16u as=0.1406p ps=1.12u w=0.74u l=0.13u
X203 sg13cmos5l_a221oi_1_0.C1 sg13cmos5l_inv_1_0.A VGND VGND sg13_lv_nmos ad=0.1406p pd=1.12u as=0.2516p ps=2.16u w=0.74u l=0.13u
X204 VPWR a_8972_9150# sg13cmos5l_buf_1_77.X VPWR sg13_lv_pmos ad=0.2114p pd=1.54u as=0.42p ps=2.99u w=1.12u l=0.13u
X205 VPWR sg13cmos5l_dfrbp_1_6.RESET_B a_422_7362# VPWR sg13_lv_pmos ad=0.36237p pd=2.605u as=79.8f ps=0.8u w=0.42u l=0.13u
X206 VGND a_11372_3102# nh_sw[5] VGND sg13_lv_nmos ad=0.14875p pd=1.16u as=0.2886p ps=2.26u w=0.74u l=0.13u
X207 a_11530_3868# a_11973_3911# a_11270_4338# VGND sg13_lv_nmos ad=79.8f pd=0.8u as=0.1296p ps=1.52u w=0.42u l=0.13u
X208 a_2161_4642# a_1609_4704# VGND VGND sg13_lv_nmos ad=71.99999f pd=0.865u as=2.41737p ps=15.64u w=0.64u l=0.13u
X209 VPWR sg13cmos5l_a22oi_1_1.A1 a_14814_3876# VPWR sg13_lv_pmos ad=0.3808p pd=2.92u as=0.2716p ps=1.605u w=1.12u l=0.13u
X210 VPWR a_10412_6126# sg13cmos5l_buf_1_29.A VPWR sg13_lv_pmos ad=0.2114p pd=1.54u as=0.42p ps=2.99u w=1.12u l=0.13u
X211 VPWR sg13cmos5l_dfrbp_1_0.RESET_B a_15466_2356# VPWR sg13_lv_pmos ad=0.1563p pd=1.22u as=0.147p ps=1.54u w=0.42u l=0.13u
X212 VPWR VGND VPWR VPWR sg13_lv_pmos ad=0.34p pd=2.68u as=0 ps=0 w=1u l=1u
X213 a_6188_1590# sg13cmos5l_buf_1_25.A VGND VGND sg13_lv_nmos ad=0.187p pd=1.78u as=0.14875p ps=1.16u w=0.55u l=0.13u
X214 sg13cmos5l_dlhr_1_11.Q_N a_13686_7354# VPWR VPWR sg13_lv_pmos ad=0.3808p pd=2.92u as=0.1974p ps=1.5u w=1.12u l=0.13u
X215 a_16425_6971# a_16068_6928# VPWR VPWR sg13_lv_pmos ad=63f pd=0.72u as=0.1563p ps=1.22u w=0.42u l=0.13u
X216 sg13cmos5l_nand2_1_1.A a_15380_3436# VGND VGND sg13_lv_nmos ad=0.2516p pd=2.16u as=0.1406p ps=1.12u w=0.74u l=0.13u
X217 sg13cmos5l_inv_1_2.A a_8488_9224# VPWR VPWR sg13_lv_pmos ad=0.42p pd=2.99u as=0.2114p ps=1.54u w=1.12u l=0.13u
X218 a_9040_7894# a_8783_7751# a_9202_7674# VGND sg13_lv_nmos ad=0.1428p pd=1.52u as=37.8f ps=0.6u w=0.42u l=0.13u
X219 VPWR a_7631_4727# a_7888_4870# VPWR sg13_lv_pmos ad=0.2639p pd=1.81u as=79.8f ps=0.8u w=0.42u l=0.13u
X220 a_2374_4325# sg13cmos5l_dfrbp_1_8.RESET_B VGND VGND sg13_lv_nmos ad=37.8f pd=0.6u as=0.1701p ps=1.65u w=0.42u l=0.13u
X221 a_3831_7282# sg13cmos5l_dfrbp_1_15.D VGND VGND sg13_lv_nmos ad=0.2516p pd=2.16u as=0.15055p ps=1.17u w=0.74u l=0.13u
X222 a_10598_6924# a_10202_7288# a_10484_6924# VPWR sg13_lv_pmos ad=0.1008p pd=0.9u as=0.191p ps=1.44u w=0.42u l=0.13u
X223 a_7750_7687# sg13cmos5l_dfrbp_1_6.RESET_B VGND VGND sg13_lv_nmos ad=37.8f pd=0.6u as=0.1701p ps=1.65u w=0.42u l=0.13u
X224 d_out[0] a_20392_2388# VPWR VPWR sg13_lv_pmos ad=0.42p pd=2.99u as=0.2114p ps=1.54u w=1.12u l=0.13u
X225 VGND sg13cmos5l_dfrbp_1_20.Q_N a_9673_9240# VGND sg13_lv_nmos ad=0.15055p pd=1.17u as=0.187p ps=1.78u w=0.55u l=0.13u
X226 a_8412_7326# a_7863_7282# a_8276_6924# VGND sg13_lv_nmos ad=47.25f pd=0.645u as=0.141p ps=1.17u w=0.42u l=0.13u
X227 sg13cmos5l_buf_1_94.X a_15016_9224# VPWR VPWR sg13_lv_pmos ad=0.42p pd=2.99u as=0.2114p ps=1.54u w=1.12u l=0.13u
X228 VPWR a_6380_7638# pl_sw[3] VPWR sg13_lv_pmos ad=0.2114p pd=1.54u as=0.42p ps=2.99u w=1.12u l=0.13u
X229 VPWR a_17493_3947# a_16572_4261# VPWR sg13_lv_pmos ad=0.36237p pd=2.605u as=0.34p ps=2.68u w=1u l=0.13u
X230 a_11364_4338# sg13cmos5l_dfrbp_1_2.D a_11270_4338# VGND sg13_lv_nmos ad=60.89999f pd=0.71u as=0.1428p ps=1.52u w=0.42u l=0.13u
X231 VPWR a_13484_8400# sg13cmos5l_buf_1_5.A VPWR sg13_lv_pmos ad=0.2114p pd=1.54u as=0.42p ps=2.99u w=1.12u l=0.13u
X232 a_2638_6162# a_2380_6162# VGND VGND sg13_lv_nmos ad=0.1428p pd=1.52u as=79.8f ps=0.8u w=0.42u l=0.13u
X233 sg13cmos5l_dlhr_1_10.Q_N a_20118_6144# VPWR VPWR sg13_lv_pmos ad=0.3808p pd=2.92u as=0.1974p ps=1.5u w=1.12u l=0.13u
X234 a_11460_2392# a_11434_2356# VPWR VPWR sg13_lv_pmos ad=0.34p pd=2.68u as=0.36237p ps=2.605u w=1u l=0.13u
X235 sg13cmos5l_buf_1_59.A a_4425_7281# VGND VGND sg13_lv_nmos ad=0.2516p pd=2.16u as=0.1406p ps=1.12u w=0.74u l=0.13u
X236 VPWR sg13cmos5l_inv_1_29.Y a_11771_5412# VPWR sg13_lv_pmos ad=0.2128p pd=1.5u as=0.2128p ps=1.5u w=1.12u l=0.13u
X237 VPWR a_18959_3215# a_19796_3436# VPWR sg13_lv_pmos ad=0.2128p pd=1.5u as=0.3864p ps=2.93u w=1.12u l=0.13u
X238 VGND sg13cmos5l_buf_1_24.X a_5704_1664# VGND sg13_lv_nmos ad=0.14875p pd=1.16u as=0.187p ps=1.78u w=0.55u l=0.13u
X239 a_10433_4248# sg13cmos5l_dfrbp_1_10.Q sg13cmos5l_a22oi_1_1.B1 VGND sg13_lv_nmos ad=0.1406p pd=1.12u as=0.1406p ps=1.12u w=0.74u l=0.13u
X240 a_2436_4325# a_2667_3911# a_2122_3868# VGND sg13_lv_nmos ad=0.2373p pd=1.97u as=79.8f ps=0.8u w=0.42u l=0.13u
X241 VGND sg13cmos5l_buf_1_34.X sg13cmos5l_buf_1_60.A VGND sg13_lv_nmos ad=0.2516p pd=2.16u as=0.2516p ps=2.16u w=0.74u l=0.13u
X242 a_10484_6924# a_10202_7288# a_10417_7326# VGND sg13_lv_nmos ad=0.141p pd=1.17u as=71.99999f ps=0.865u w=0.64u l=0.13u
X243 VGND VPWR VGND VGND sg13_lv_nmos ad=0.1428p pd=1.52u as=0 ps=0 w=0.42u l=1u
X244 a_4559_7630# sg13cmos5l_dlhr_1_9.D VPWR VPWR sg13_lv_pmos ad=0.2856p pd=2.36u as=1.15047p ps=7.175u w=0.84u l=0.13u
X245 VPWR sg13cmos5l_dfrbp_1_6.RESET_B a_12230_6162# VPWR sg13_lv_pmos ad=0.36237p pd=2.605u as=79.8f ps=0.8u w=0.42u l=0.13u
X246 a_18117_3117# sg13cmos5l_dfrbp_1_0.CLK VGND VGND sg13_lv_nmos ad=0.2516p pd=2.16u as=2.43055p ps=15.415u w=0.74u l=0.13u
X247 VGND sg13cmos5l_dfrbp_1_6.RESET_B a_7732_3124# VGND sg13_lv_nmos ad=0.1406p pd=1.12u as=77.7f ps=0.95u w=0.74u l=0.13u
X248 VPWR a_2224_5654# a_2169_5535# VPWR sg13_lv_pmos ad=1.28962p pd=8.195u as=93.45f ps=0.865u w=0.42u l=0.13u
X249 VGND sg13cmos5l_buf_1_61.X a_1000_9224# VGND sg13_lv_nmos ad=0.14875p pd=1.16u as=0.187p ps=1.78u w=0.55u l=0.13u
X250 a_13017_4023# a_12075_3911# a_12815_4261# VPWR sg13_lv_pmos ad=93.45f pd=0.865u as=0.2048p ps=1.63u w=0.42u l=0.13u
X251 VPWR a_17135_4727# a_17392_4870# VPWR sg13_lv_pmos ad=0.2639p pd=1.81u as=79.8f ps=0.8u w=0.42u l=0.13u