* NGSPICE file created from side_cap8b_pex.ext - technology: ihp-sg13cmos5l

.subckt side_cap8b_pex in_l_sw[0] in_l_sw[1] in_l_sw[2] in_l_sw[3] in_l_sw[4] in_l_sw[5]
+ in_l_sw[6] in_l_sw[7] in_l_sw[8] in_l_sw[9] in_l_sw[10] vc vdd vss in_h_sw[10] in_h_sw[9]
+ in_h_sw[8] in_h_sw[7] in_h_sw[6] in_h_sw[5] in_h_sw[4] in_h_sw[3] in_h_sw[2] in_h_sw[1]
+ in_h_sw[0]
X0 vdd in_h_sw[1] buf_16_3.z vdd sg13_lv_pmos ad=0.19p pd=1.38u as=0.19p ps=1.38u w=1u l=0.13u
X1 vss in_h_sw[0] buf_32_1.z vss sg13_lv_nmos ad=95f pd=0.88u as=95f ps=0.88u w=0.5u l=0.13u
X2 vdd in_l_sw[4] buf_8_0.z vdd sg13_lv_pmos ad=0.19p pd=1.38u as=0.19p ps=1.38u w=1u l=0.13u
X3 vdd in_l_sw[0] buf_32_0.z vdd sg13_lv_pmos ad=0.19p pd=1.38u as=0.19p ps=1.38u w=1u l=0.13u
X4 buf_16_1.z in_l_sw[2] vss vss sg13_lv_nmos ad=95f pd=0.88u as=95f ps=0.88u w=0.5u l=0.13u
X5 vss in_h_sw[2] buf_16_0.z vss sg13_lv_nmos ad=95f pd=0.88u as=95f ps=0.88u w=0.5u l=0.13u
X6 buf_32_0.z in_l_sw[0] vss vss sg13_lv_nmos ad=95f pd=0.88u as=95f ps=0.88u w=0.5u l=0.13u
X7 vss in_h_sw[2] buf_16_0.z vss sg13_lv_nmos ad=95f pd=0.88u as=95f ps=0.88u w=0.5u l=0.13u
X8 vdd in_h_sw[5] buf_8_5.z vdd sg13_lv_pmos ad=0.19p pd=1.38u as=0.34p ps=2.68u w=1u l=0.13u
X9 buf_16_1.z in_l_sw[2] vss vss sg13_lv_nmos ad=95f pd=0.88u as=95f ps=0.88u w=0.5u l=0.13u
X10 buf_32_1.z in_h_sw[0] vss vss sg13_lv_nmos ad=95f pd=0.88u as=95f ps=0.88u w=0.5u l=0.13u
X11 vdd in_l_sw[0] buf_32_0.z vdd sg13_lv_pmos ad=0.19p pd=1.38u as=0.19p ps=1.38u w=1u l=0.13u
X12 buf_32_0.z in_l_sw[0] vdd vdd sg13_lv_pmos ad=0.19p pd=1.38u as=0.19p ps=1.38u w=1u l=0.13u
X13 buf_2_2.z in_l_sw[9] vss vss sg13_lv_nmos ad=0.17p pd=1.68u as=95f ps=0.88u w=0.5u l=0.13u
X14 vdd in_h_sw[0] buf_32_1.z vdd sg13_lv_pmos ad=0.19p pd=1.38u as=0.19p ps=1.38u w=1u l=0.13u
X15 vss in_l_sw[0] buf_32_0.z vss sg13_lv_nmos ad=95f pd=0.88u as=95f ps=0.88u w=0.5u l=0.13u
X16 buf_8_2.z in_h_sw[4] vss vss sg13_lv_nmos ad=0.17p pd=1.68u as=95f ps=0.88u w=0.5u l=0.13u
X17 buf_16_0.z in_h_sw[2] vdd vdd sg13_lv_pmos ad=0.34p pd=2.68u as=0.19p ps=1.38u w=1u l=0.13u
X18 vss in_h_sw[0] buf_32_1.z vss sg13_lv_nmos ad=95f pd=0.88u as=95f ps=0.88u w=0.5u l=0.13u
X19 buf_16_3.z in_h_sw[1] vdd vdd sg13_lv_pmos ad=0.19p pd=1.38u as=0.19p ps=1.38u w=1u l=0.13u
X20 buf_32_1.z in_h_sw[0] vdd vdd sg13_lv_pmos ad=0.19p pd=1.38u as=0.19p ps=1.38u w=1u l=0.13u
X21 vss in_h_sw[1] buf_16_3.z vss sg13_lv_nmos ad=95f pd=0.88u as=0.17p ps=1.68u w=0.5u l=0.13u
X22 buf_32_0.z in_l_sw[0] vss vss sg13_lv_nmos ad=95f pd=0.88u as=95f ps=0.88u w=0.5u l=0.13u
X23 vdd in_h_sw[3] buf_8_3.z vdd sg13_lv_pmos ad=0.19p pd=1.38u as=0.19p ps=1.38u w=1u l=0.13u
X24 buf_2_1.z in_l_sw[8] vdd vdd sg13_lv_pmos ad=0.34p pd=2.68u as=0.19p ps=1.38u w=1u l=0.13u
X25 buf_32_1.z in_h_sw[0] vss vss sg13_lv_nmos ad=95f pd=0.88u as=95f ps=0.88u w=0.5u l=0.13u
X26 vdd in_h_sw[2] buf_16_0.z vdd sg13_lv_pmos ad=0.19p pd=1.38u as=0.34p ps=2.68u w=1u l=0.13u
X27 buf_8_1.z in_l_sw[3] vss vss sg13_lv_nmos ad=95f pd=0.88u as=95f ps=0.88u w=0.5u l=0.13u
X28 vdd in_l_sw[3] buf_8_1.z vdd sg13_lv_pmos ad=0.19p pd=1.38u as=0.19p ps=1.38u w=1u l=0.13u
X29 vdd in_h_sw[0] buf_32_1.z vdd sg13_lv_pmos ad=0.19p pd=1.38u as=0.19p ps=1.38u w=1u l=0.13u
X30 buf_16_3.z in_h_sw[1] vss vss sg13_lv_nmos ad=95f pd=0.88u as=95f ps=0.88u w=0.5u l=0.13u
X31 buf_8_2.z in_h_sw[4] vss vss sg13_lv_nmos ad=95f pd=0.88u as=95f ps=0.88u w=0.5u l=0.13u
X32 vss in_h_sw[0] buf_32_1.z vss sg13_lv_nmos ad=95f pd=0.88u as=95f ps=0.88u w=0.5u l=0.13u
X33 vdd in_h_sw[0] buf_32_1.z vdd sg13_lv_pmos ad=0.19p pd=1.38u as=0.19p ps=1.38u w=1u l=0.13u
X34 buf_16_0.z in_h_sw[2] vdd vdd sg13_lv_pmos ad=0.19p pd=1.38u as=0.19p ps=1.38u w=1u l=0.13u
X35 vdd in_h_sw[6] buf_4_1.z vdd sg13_lv_pmos ad=0.19p pd=1.38u as=0.34p ps=2.68u w=1u l=0.13u
X36 buf_16_2.z in_l_sw[1] vss vss sg13_lv_nmos ad=95f pd=0.88u as=95f ps=0.88u w=0.5u l=0.13u
X37 vss in_l_sw[1] buf_16_2.z vss sg13_lv_nmos ad=95f pd=0.88u as=95f ps=0.88u w=0.5u l=0.13u
X38 buf_8_3.z in_h_sw[3] vss vss sg13_lv_nmos ad=95f pd=0.88u as=95f ps=0.88u w=0.5u l=0.13u
X39 vdd in_l_sw[2] buf_16_1.z vdd sg13_lv_pmos ad=0.19p pd=1.38u as=0.19p ps=1.38u w=1u l=0.13u
X40 buf_8_4.z in_l_sw[5] vss vss sg13_lv_nmos ad=95f pd=0.88u as=95f ps=0.88u w=0.5u l=0.13u
X41 buf_32_0.z in_l_sw[0] vss vss sg13_lv_nmos ad=95f pd=0.88u as=95f ps=0.88u w=0.5u l=0.13u
X42 vdd in_h_sw[3] buf_8_3.z vdd sg13_lv_pmos ad=0.19p pd=1.38u as=0.19p ps=1.38u w=1u l=0.13u
X43 buf_16_1.z in_l_sw[2] vdd vdd sg13_lv_pmos ad=0.19p pd=1.38u as=0.19p ps=1.38u w=1u l=0.13u
X44 buf_16_2.z in_l_sw[1] vdd vdd sg13_lv_pmos ad=0.19p pd=1.38u as=0.19p ps=1.38u w=1u l=0.13u
X45 vdd in_l_sw[0] buf_32_0.z vdd sg13_lv_pmos ad=0.19p pd=1.38u as=0.19p ps=1.38u w=1u l=0.13u
X46 vss in_h_sw[7] buf_4_2.z vss sg13_lv_nmos ad=95f pd=0.88u as=95f ps=0.88u w=0.5u l=0.13u
X47 buf_2_2.z in_l_sw[9] vdd vdd sg13_lv_pmos ad=0.34p pd=2.68u as=0.19p ps=1.38u w=1u l=0.13u
X48 buf_16_3.z in_h_sw[1] vdd vdd sg13_lv_pmos ad=0.19p pd=1.38u as=0.19p ps=1.38u w=1u l=0.13u
X49 buf_4_0.z in_l_sw[7] vdd vdd sg13_lv_pmos ad=0.19p pd=1.38u as=0.19p ps=1.38u w=1u l=0.13u
X50 vss in_l_sw[0] buf_32_0.z vss sg13_lv_nmos ad=95f pd=0.88u as=95f ps=0.88u w=0.5u l=0.13u
X51 buf_8_5.z in_h_sw[5] vss vss sg13_lv_nmos ad=0.17p pd=1.68u as=95f ps=0.88u w=0.5u l=0.13u
X52 vdd in_h_sw[8] buf_2_0.z vdd sg13_lv_pmos ad=0.19p pd=1.38u as=0.34p ps=2.68u w=1u l=0.13u
X53 buf_8_0.z in_l_sw[4] vdd vdd sg13_lv_pmos ad=0.19p pd=1.38u as=0.19p ps=1.38u w=1u l=0.13u
X54 buf_32_0.z in_l_sw[0] vdd vdd sg13_lv_pmos ad=0.19p pd=1.38u as=0.19p ps=1.38u w=1u l=0.13u
X55 vss in_l_sw[2] buf_16_1.z vss sg13_lv_nmos ad=95f pd=0.88u as=95f ps=0.88u w=0.5u l=0.13u
X56 vss in_l_sw[0] buf_32_0.z vss sg13_lv_nmos ad=95f pd=0.88u as=95f ps=0.88u w=0.5u l=0.13u
X57 vdd in_l_sw[2] buf_16_1.z vdd sg13_lv_pmos ad=0.19p pd=1.38u as=0.19p ps=1.38u w=1u l=0.13u
X58 vdd in_l_sw[1] buf_16_2.z vdd sg13_lv_pmos ad=0.19p pd=1.38u as=0.19p ps=1.38u w=1u l=0.13u
X59 vss in_l_sw[3] buf_8_1.z vss sg13_lv_nmos ad=95f pd=0.88u as=95f ps=0.88u w=0.5u l=0.13u
X60 vdd in_l_sw[0] buf_32_0.z vdd sg13_lv_pmos ad=0.19p pd=1.38u as=0.19p ps=1.38u w=1u l=0.13u
X61 buf_32_1.z in_h_sw[0] vdd vdd sg13_lv_pmos ad=0.19p pd=1.38u as=0.19p ps=1.38u w=1u l=0.13u
X62 vdd in_l_sw[5] buf_8_4.z vdd sg13_lv_pmos ad=0.19p pd=1.38u as=0.19p ps=1.38u w=1u l=0.13u
X63 vdd in_h_sw[2] buf_16_0.z vdd sg13_lv_pmos ad=0.19p pd=1.38u as=0.19p ps=1.38u w=1u l=0.13u
X64 buf_8_5.z in_h_sw[5] vss vss sg13_lv_nmos ad=95f pd=0.88u as=95f ps=0.88u w=0.5u l=0.13u
X65 buf_32_0.z in_l_sw[0] vdd vdd sg13_lv_pmos ad=0.19p pd=1.38u as=0.19p ps=1.38u w=1u l=0.13u
X66 vss in_l_sw[4] buf_8_0.z vss sg13_lv_nmos ad=95f pd=0.88u as=0.17p ps=1.68u w=0.5u l=0.13u
X67 buf_16_3.z in_h_sw[1] vss vss sg13_lv_nmos ad=95f pd=0.88u as=95f ps=0.88u w=0.5u l=0.13u
X68 vdd in_h_sw[0] buf_32_1.z vdd sg13_lv_pmos ad=0.19p pd=1.38u as=0.19p ps=1.38u w=1u l=0.13u
X69 vss in_l_sw[0] buf_32_0.z vss sg13_lv_nmos ad=95f pd=0.88u as=0.17p ps=1.68u w=0.5u l=0.13u
X70 buf_16_0.z in_h_sw[2] vss vss sg13_lv_nmos ad=95f pd=0.88u as=95f ps=0.88u w=0.5u l=0.13u
X71 vss in_h_sw[0] buf_32_1.z vss sg13_lv_nmos ad=95f pd=0.88u as=95f ps=0.88u w=0.5u l=0.13u
X72 buf_2_1.z in_l_sw[8] vss vss sg13_lv_nmos ad=0.17p pd=1.68u as=95f ps=0.88u w=0.5u l=0.13u
X73 vdd in_l_sw[0] buf_32_0.z vdd sg13_lv_pmos ad=0.19p pd=1.38u as=0.19p ps=1.38u w=1u l=0.13u
X74 buf_4_3.z in_l_sw[6] vss vss sg13_lv_nmos ad=95f pd=0.88u as=95f ps=0.88u w=0.5u l=0.13u
X75 buf_8_1.z in_l_sw[3] vdd vdd sg13_lv_pmos ad=0.34p pd=2.68u as=0.19p ps=1.38u w=1u l=0.13u
X76 buf_32_1.z in_h_sw[0] vdd vdd sg13_lv_pmos ad=0.19p pd=1.38u as=0.19p ps=1.38u w=1u l=0.13u
X77 buf_4_2.z in_h_sw[7] vdd vdd sg13_lv_pmos ad=0.19p pd=1.38u as=0.19p ps=1.38u w=1u l=0.13u
X78 vss in_h_sw[1] buf_16_3.z vss sg13_lv_nmos ad=95f pd=0.88u as=95f ps=0.88u w=0.5u l=0.13u
X79 buf_32_0.z in_l_sw[0] vss vss sg13_lv_nmos ad=95f pd=0.88u as=95f ps=0.88u w=0.5u l=0.13u
X80 vss in_h_sw[4] buf_8_2.z vss sg13_lv_nmos ad=95f pd=0.88u as=95f ps=0.88u w=0.5u l=0.13u
X81 buf_32_1.z in_h_sw[0] vss vss sg13_lv_nmos ad=95f pd=0.88u as=95f ps=0.88u w=0.5u l=0.13u
X82 buf_32_1.z in_h_sw[0] vdd vdd sg13_lv_pmos ad=0.19p pd=1.38u as=0.19p ps=1.38u w=1u l=0.13u
X83 vdd in_h_sw[2] buf_16_0.z vdd sg13_lv_pmos ad=0.19p pd=1.38u as=0.19p ps=1.38u w=1u l=0.13u
X84 vss in_h_sw[0] buf_32_1.z vss sg13_lv_nmos ad=95f pd=0.88u as=95f ps=0.88u w=0.5u l=0.13u
X85 vdd in_h_sw[5] buf_8_5.z vdd sg13_lv_pmos ad=0.19p pd=1.38u as=0.19p ps=1.38u w=1u l=0.13u
X86 buf_16_2.z in_l_sw[1] vss vss sg13_lv_nmos ad=95f pd=0.88u as=95f ps=0.88u w=0.5u l=0.13u
X87 vdd in_h_sw[0] buf_32_1.z vdd sg13_lv_pmos ad=0.19p pd=1.38u as=0.19p ps=1.38u w=1u l=0.13u
X88 vdd in_l_sw[1] buf_16_2.z vdd sg13_lv_pmos ad=0.19p pd=1.38u as=0.19p ps=1.38u w=1u l=0.13u
X89 vss in_l_sw[0] buf_32_0.z vss sg13_lv_nmos ad=95f pd=0.88u as=95f ps=0.88u w=0.5u l=0.13u
X90 buf_8_3.z in_h_sw[3] vdd vdd sg13_lv_pmos ad=0.19p pd=1.38u as=0.19p ps=1.38u w=1u l=0.13u
X91 buf_4_0.z in_l_sw[7] vss vss sg13_lv_nmos ad=0.17p pd=1.68u as=95f ps=0.88u w=0.5u l=0.13u
X92 vdd in_l_sw[5] buf_8_4.z vdd sg13_lv_pmos ad=0.19p pd=1.38u as=0.19p ps=1.38u w=1u l=0.13u
X93 vdd in_h_sw[1] buf_16_3.z vdd sg13_lv_pmos ad=0.19p pd=1.38u as=0.19p ps=1.38u w=1u l=0.13u
X94 buf_32_1.z in_h_sw[0] vdd vdd sg13_lv_pmos ad=0.19p pd=1.38u as=0.19p ps=1.38u w=1u l=0.13u
X95 vss in_h_sw[1] buf_16_3.z vss sg13_lv_nmos ad=95f pd=0.88u as=95f ps=0.88u w=0.5u l=0.13u
X96 vss in_h_sw[4] buf_8_2.z vss sg13_lv_nmos ad=95f pd=0.88u as=0.17p ps=1.68u w=0.5u l=0.13u
X97 buf_8_0.z in_l_sw[4] vdd vdd sg13_lv_pmos ad=0.19p pd=1.38u as=0.19p ps=1.38u w=1u l=0.13u
X98 buf_32_0.z in_l_sw[0] vss vss sg13_lv_nmos ad=95f pd=0.88u as=95f ps=0.88u w=0.5u l=0.13u
X99 vdd in_h_sw[2] buf_16_0.z vdd sg13_lv_pmos ad=0.19p pd=1.38u as=0.19p ps=1.38u w=1u l=0.13u
X100 buf_16_1.z in_l_sw[2] vss vss sg13_lv_nmos ad=95f pd=0.88u as=95f ps=0.88u w=0.5u l=0.13u
X101 buf_16_2.z in_l_sw[1] vss vss sg13_lv_nmos ad=95f pd=0.88u as=95f ps=0.88u w=0.5u l=0.13u
X102 vdd in_h_sw[5] buf_8_5.z vdd sg13_lv_pmos ad=0.19p pd=1.38u as=0.19p ps=1.38u w=1u l=0.13u
X103 buf_16_1.z in_l_sw[2] vdd vdd sg13_lv_pmos ad=0.19p pd=1.38u as=0.19p ps=1.38u w=1u l=0.13u
X104 buf_16_2.z in_l_sw[1] vdd vdd sg13_lv_pmos ad=0.19p pd=1.38u as=0.19p ps=1.38u w=1u l=0.13u
X105 buf_8_0.z in_l_sw[4] vss vss sg13_lv_nmos ad=95f pd=0.88u as=95f ps=0.88u w=0.5u l=0.13u
X106 vss in_l_sw[5] buf_8_4.z vss sg13_lv_nmos ad=95f pd=0.88u as=0.17p ps=1.68u w=0.5u l=0.13u
X107 buf_8_1.z in_l_sw[3] vss vss sg13_lv_nmos ad=95f pd=0.88u as=95f ps=0.88u w=0.5u l=0.13u
X108 buf_8_2.z in_h_sw[4] vdd vdd sg13_lv_pmos ad=0.19p pd=1.38u as=0.19p ps=1.38u w=1u l=0.13u
X109 vdd in_h_sw[9] buf_2_3.z vdd sg13_lv_pmos ad=0.19p pd=1.38u as=0.34p ps=2.68u w=1u l=0.13u
X110 buf_8_4.z in_l_sw[5] vdd vdd sg13_lv_pmos ad=0.19p pd=1.38u as=0.19p ps=1.38u w=1u l=0.13u
X111 vss in_h_sw[0] buf_32_1.z vss sg13_lv_nmos ad=95f pd=0.88u as=95f ps=0.88u w=0.5u l=0.13u
X112 vss in_h_sw[5] buf_8_5.z vss sg13_lv_nmos ad=95f pd=0.88u as=95f ps=0.88u w=0.5u l=0.13u
X113 vdd in_l_sw[0] buf_32_0.z vdd sg13_lv_pmos ad=0.19p pd=1.38u as=0.19p ps=1.38u w=1u l=0.13u
X114 buf_16_1.z in_l_sw[2] vss vss sg13_lv_nmos ad=95f pd=0.88u as=95f ps=0.88u w=0.5u l=0.13u
X115 vss in_h_sw[2] buf_16_0.z vss sg13_lv_nmos ad=95f pd=0.88u as=95f ps=0.88u w=0.5u l=0.13u
X116 vss in_h_sw[2] buf_16_0.z vss sg13_lv_nmos ad=95f pd=0.88u as=95f ps=0.88u w=0.5u l=0.13u
X117 buf_32_1.z in_h_sw[0] vss vss sg13_lv_nmos ad=95f pd=0.88u as=95f ps=0.88u w=0.5u l=0.13u
X118 buf_4_1.z in_h_sw[6] vss vss sg13_lv_nmos ad=95f pd=0.88u as=95f ps=0.88u w=0.5u l=0.13u
X119 buf_16_1.z in_l_sw[2] vss vss sg13_lv_nmos ad=0.17p pd=1.68u as=95f ps=0.88u w=0.5u l=0.13u
X120 vdd in_l_sw[0] buf_32_0.z vdd sg13_lv_pmos ad=0.19p pd=1.38u as=0.19p ps=1.38u w=1u l=0.13u
X121 vdd in_l_sw[3] buf_8_1.z vdd sg13_lv_pmos ad=0.19p pd=1.38u as=0.19p ps=1.38u w=1u l=0.13u
X122 buf_32_0.z in_l_sw[0] vdd vdd sg13_lv_pmos ad=0.19p pd=1.38u as=0.19p ps=1.38u w=1u l=0.13u
X123 vss in_l_sw[0] buf_32_0.z vss sg13_lv_nmos ad=95f pd=0.88u as=95f ps=0.88u w=0.5u l=0.13u
X124 vss in_h_sw[0] buf_32_1.z vss sg13_lv_nmos ad=95f pd=0.88u as=95f ps=0.88u w=0.5u l=0.13u
X125 buf_16_3.z in_h_sw[1] vdd vdd sg13_lv_pmos ad=0.34p pd=2.68u as=0.19p ps=1.38u w=1u l=0.13u
X126 vss in_h_sw[5] buf_8_5.z vss sg13_lv_nmos ad=95f pd=0.88u as=0.17p ps=1.68u w=0.5u l=0.13u
X127 buf_32_1.z in_h_sw[0] vss vss sg13_lv_nmos ad=95f pd=0.88u as=95f ps=0.88u w=0.5u l=0.13u
X128 buf_8_3.z in_h_sw[3] vss vss sg13_lv_nmos ad=0.17p pd=1.68u as=95f ps=0.88u w=0.5u l=0.13u
X129 buf_32_0.z in_l_sw[0] vss vss sg13_lv_nmos ad=95f pd=0.88u as=95f ps=0.88u w=0.5u l=0.13u
X130 buf_4_3.z in_l_sw[6] vdd vdd sg13_lv_pmos ad=0.19p pd=1.38u as=0.19p ps=1.38u w=1u l=0.13u
X131 buf_32_1.z in_h_sw[0] vdd vdd sg13_lv_pmos ad=0.19p pd=1.38u as=0.19p ps=1.38u w=1u l=0.13u
X132 vss in_l_sw[7] buf_4_0.z vss sg13_lv_nmos ad=95f pd=0.88u as=0.17p ps=1.68u w=0.5u l=0.13u
X133 vdd in_h_sw[0] buf_32_1.z vdd sg13_lv_pmos ad=0.19p pd=1.38u as=0.19p ps=1.38u w=1u l=0.13u
X134 buf_16_3.z in_h_sw[1] vss vss sg13_lv_nmos ad=95f pd=0.88u as=95f ps=0.88u w=0.5u l=0.13u
X135 vdd in_h_sw[6] buf_4_1.z vdd sg13_lv_pmos ad=0.19p pd=1.38u as=0.19p ps=1.38u w=1u l=0.13u
X136 buf_16_0.z in_h_sw[2] vdd vdd sg13_lv_pmos ad=0.19p pd=1.38u as=0.19p ps=1.38u w=1u l=0.13u
X137 vss in_h_sw[8] buf_2_0.z vss sg13_lv_nmos ad=95f pd=0.88u as=0.17p ps=1.68u w=0.5u l=0.13u
X138 buf_16_2.z in_l_sw[1] vss vss sg13_lv_nmos ad=0.17p pd=1.68u as=95f ps=0.88u w=0.5u l=0.13u
X139 buf_8_3.z in_h_sw[3] vss vss sg13_lv_nmos ad=95f pd=0.88u as=95f ps=0.88u w=0.5u l=0.13u
X140 vdd in_l_sw[2] buf_16_1.z vdd sg13_lv_pmos ad=0.19p pd=1.38u as=0.19p ps=1.38u w=1u l=0.13u
X141 buf_8_5.z in_h_sw[5] vdd vdd sg13_lv_pmos ad=0.19p pd=1.38u as=0.19p ps=1.38u w=1u l=0.13u
X142 buf_8_4.z in_l_sw[5] vss vss sg13_lv_nmos ad=95f pd=0.88u as=95f ps=0.88u w=0.5u l=0.13u
X143 vss in_l_sw[1] buf_16_2.z vss sg13_lv_nmos ad=95f pd=0.88u as=95f ps=0.88u w=0.5u l=0.13u
X144 buf_16_2.z in_l_sw[1] vdd vdd sg13_lv_pmos ad=0.19p pd=1.38u as=0.19p ps=1.38u w=1u l=0.13u
X145 buf_16_1.z in_l_sw[2] vdd vdd sg13_lv_pmos ad=0.34p pd=2.68u as=0.19p ps=1.38u w=1u l=0.13u
X146 vdd in_l_sw[0] buf_32_0.z vdd sg13_lv_pmos ad=0.19p pd=1.38u as=0.19p ps=1.38u w=1u l=0.13u
X147 buf_16_3.z in_h_sw[1] vdd vdd sg13_lv_pmos ad=0.19p pd=1.38u as=0.19p ps=1.38u w=1u l=0.13u
X148 buf_32_1.z in_h_sw[0] vss vss sg13_lv_nmos ad=95f pd=0.88u as=95f ps=0.88u w=0.5u l=0.13u
X149 buf_4_0.z in_l_sw[7] vdd vdd sg13_lv_pmos ad=0.34p pd=2.68u as=0.19p ps=1.38u w=1u l=0.13u
X150 buf_8_0.z in_l_sw[4] vdd vdd sg13_lv_pmos ad=0.19p pd=1.38u as=0.19p ps=1.38u w=1u l=0.13u
X151 buf_32_0.z in_l_sw[0] vdd vdd sg13_lv_pmos ad=0.19p pd=1.38u as=0.19p ps=1.38u w=1u l=0.13u
X152 vss in_l_sw[2] buf_16_1.z vss sg13_lv_nmos ad=95f pd=0.88u as=95f ps=0.88u w=0.5u l=0.13u
X153 vss in_l_sw[0] buf_32_0.z vss sg13_lv_nmos ad=95f pd=0.88u as=95f ps=0.88u w=0.5u l=0.13u
X154 buf_4_2.z in_h_sw[7] vdd vdd sg13_lv_pmos ad=0.34p pd=2.68u as=0.19p ps=1.38u w=1u l=0.13u
X155 buf_16_0.z in_h_sw[2] vss vss sg13_lv_nmos ad=95f pd=0.88u as=95f ps=0.88u w=0.5u l=0.13u
X156 buf_16_0.z in_h_sw[2] vss vss sg13_lv_nmos ad=95f pd=0.88u as=95f ps=0.88u w=0.5u l=0.13u
X157 vss in_h_sw[0] buf_32_1.z vss sg13_lv_nmos ad=95f pd=0.88u as=95f ps=0.88u w=0.5u l=0.13u
X158 vss in_l_sw[2] buf_16_1.z vss sg13_lv_nmos ad=95f pd=0.88u as=95f ps=0.88u w=0.5u l=0.13u
X159 buf_2_3.z in_h_sw[9] vss vss sg13_lv_nmos ad=0.17p pd=1.68u as=95f ps=0.88u w=0.5u l=0.13u
X160 buf_32_0.z in_l_sw[0] vdd vdd sg13_lv_pmos ad=0.19p pd=1.38u as=0.19p ps=1.38u w=1u l=0.13u
X161 vdd in_l_sw[0] buf_32_0.z vdd sg13_lv_pmos ad=0.19p pd=1.38u as=0.19p ps=1.38u w=1u l=0.13u
X162 vss in_l_sw[9] buf_2_2.z vss sg13_lv_nmos ad=95f pd=0.88u as=0.17p ps=1.68u w=0.5u l=0.13u
X163 buf_32_1.z in_h_sw[0] vdd vdd sg13_lv_pmos ad=0.19p pd=1.38u as=0.19p ps=1.38u w=1u l=0.13u
X164 buf_32_0.z in_l_sw[0] vss vss sg13_lv_nmos ad=95f pd=0.88u as=95f ps=0.88u w=0.5u l=0.13u
X165 vss in_h_sw[4] buf_8_2.z vss sg13_lv_nmos ad=95f pd=0.88u as=95f ps=0.88u w=0.5u l=0.13u
X166 buf_32_1.z in_h_sw[0] vss vss sg13_lv_nmos ad=95f pd=0.88u as=95f ps=0.88u w=0.5u l=0.13u
X167 vdd in_h_sw[2] buf_16_0.z vdd sg13_lv_pmos ad=0.19p pd=1.38u as=0.19p ps=1.38u w=1u l=0.13u
X168 vdd in_h_sw[1] buf_16_3.z vdd sg13_lv_pmos ad=0.19p pd=1.38u as=0.19p ps=1.38u w=1u l=0.13u
X169 buf_16_3.z in_h_sw[1] vss vss sg13_lv_nmos ad=0.17p pd=1.68u as=95f ps=0.88u w=0.5u l=0.13u
X170 vss in_l_sw[4] buf_8_0.z vss sg13_lv_nmos ad=95f pd=0.88u as=95f ps=0.88u w=0.5u l=0.13u
X171 vdd in_h_sw[0] buf_32_1.z vdd sg13_lv_pmos ad=0.19p pd=1.38u as=0.19p ps=1.38u w=1u l=0.13u
X172 vss in_l_sw[0] buf_32_0.z vss sg13_lv_nmos ad=95f pd=0.88u as=95f ps=0.88u w=0.5u l=0.13u
X173 vdd in_l_sw[8] buf_2_1.z vdd sg13_lv_pmos ad=0.19p pd=1.38u as=0.34p ps=2.68u w=1u l=0.13u
X174 buf_16_0.z in_h_sw[2] vss vss sg13_lv_nmos ad=95f pd=0.88u as=95f ps=0.88u w=0.5u l=0.13u
X175 vss in_h_sw[0] buf_32_1.z vss sg13_lv_nmos ad=95f pd=0.88u as=95f ps=0.88u w=0.5u l=0.13u
X176 vss in_l_sw[3] buf_8_1.z vss sg13_lv_nmos ad=95f pd=0.88u as=0.17p ps=1.68u w=0.5u l=0.13u
X177 buf_4_3.z in_l_sw[6] vss vss sg13_lv_nmos ad=0.17p pd=1.68u as=95f ps=0.88u w=0.5u l=0.13u
X178 buf_8_1.z in_l_sw[3] vdd vdd sg13_lv_pmos ad=0.19p pd=1.38u as=0.19p ps=1.38u w=1u l=0.13u
X179 vss in_l_sw[1] buf_16_2.z vss sg13_lv_nmos ad=95f pd=0.88u as=0.17p ps=1.68u w=0.5u l=0.13u
X180 buf_32_1.z in_h_sw[0] vdd vdd sg13_lv_pmos ad=0.19p pd=1.38u as=0.19p ps=1.38u w=1u l=0.13u
X181 vss in_h_sw[1] buf_16_3.z vss sg13_lv_nmos ad=95f pd=0.88u as=95f ps=0.88u w=0.5u l=0.13u
X182 buf_32_0.z in_l_sw[0] vss vss sg13_lv_nmos ad=95f pd=0.88u as=95f ps=0.88u w=0.5u l=0.13u
X183 vss in_h_sw[4] buf_8_2.z vss sg13_lv_nmos ad=95f pd=0.88u as=95f ps=0.88u w=0.5u l=0.13u
X184 buf_32_1.z in_h_sw[0] vss vss sg13_lv_nmos ad=95f pd=0.88u as=95f ps=0.88u w=0.5u l=0.13u
X185 buf_32_1.z in_h_sw[0] vdd vdd sg13_lv_pmos ad=0.19p pd=1.38u as=0.19p ps=1.38u w=1u l=0.13u
X186 vdd in_h_sw[2] buf_16_0.z vdd sg13_lv_pmos ad=0.19p pd=1.38u as=0.19p ps=1.38u w=1u l=0.13u
X187 vss in_l_sw[1] buf_16_2.z vss sg13_lv_nmos ad=95f pd=0.88u as=95f ps=0.88u w=0.5u l=0.13u
X188 buf_16_2.z in_l_sw[1] vss vss sg13_lv_nmos ad=95f pd=0.88u as=95f ps=0.88u w=0.5u l=0.13u
X189 vss in_h_sw[3] buf_8_3.z vss sg13_lv_nmos ad=95f pd=0.88u as=95f ps=0.88u w=0.5u l=0.13u
X190 vss in_l_sw[0] buf_32_0.z vss sg13_lv_nmos ad=95f pd=0.88u as=95f ps=0.88u w=0.5u l=0.13u
X191 vdd in_l_sw[1] buf_16_2.z vdd sg13_lv_pmos ad=0.19p pd=1.38u as=0.19p ps=1.38u w=1u l=0.13u
X192 buf_8_3.z in_h_sw[3] vdd vdd sg13_lv_pmos ad=0.19p pd=1.38u as=0.19p ps=1.38u w=1u l=0.13u
X193 vdd in_l_sw[2] buf_16_1.z vdd sg13_lv_pmos ad=0.19p pd=1.38u as=0.19p ps=1.38u w=1u l=0.13u
X194 buf_32_0.z in_l_sw[0] vdd vdd sg13_lv_pmos ad=0.19p pd=1.38u as=0.19p ps=1.38u w=1u l=0.13u
X195 buf_8_2.z in_h_sw[4] vdd vdd sg13_lv_pmos ad=0.34p pd=2.68u as=0.19p ps=1.38u w=1u l=0.13u
X196 buf_4_2.z in_h_sw[7] vss vss sg13_lv_nmos ad=95f pd=0.88u as=95f ps=0.88u w=0.5u l=0.13u
X197 vss in_l_sw[2] buf_16_1.z vss sg13_lv_nmos ad=95f pd=0.88u as=0.17p ps=1.68u w=0.5u l=0.13u
X198 vdd in_h_sw[1] buf_16_3.z vdd sg13_lv_pmos ad=0.19p pd=1.38u as=0.19p ps=1.38u w=1u l=0.13u
X199 vdd in_l_sw[9] buf_2_2.z vdd sg13_lv_pmos ad=0.19p pd=1.38u as=0.34p ps=2.68u w=1u l=0.13u
X200 buf_4_1.z in_h_sw[6] vss vss sg13_lv_nmos ad=0.17p pd=1.68u as=95f ps=0.88u w=0.5u l=0.13u
X201 buf_32_1.z in_h_sw[0] vdd vdd sg13_lv_pmos ad=0.19p pd=1.38u as=0.19p ps=1.38u w=1u l=0.13u
X202 vdd in_l_sw[7] buf_4_0.z vdd sg13_lv_pmos ad=0.19p pd=1.38u as=0.34p ps=2.68u w=1u l=0.13u
X203 buf_32_0.z in_l_sw[0] vss vss sg13_lv_nmos ad=95f pd=0.88u as=95f ps=0.88u w=0.5u l=0.13u
X204 vss in_h_sw[5] buf_8_5.z vss sg13_lv_nmos ad=95f pd=0.88u as=95f ps=0.88u w=0.5u l=0.13u
X205 vdd in_l_sw[0] buf_32_0.z vdd sg13_lv_pmos ad=0.19p pd=1.38u as=0.19p ps=1.38u w=1u l=0.13u
X206 buf_16_1.z in_l_sw[2] vss vss sg13_lv_nmos ad=95f pd=0.88u as=95f ps=0.88u w=0.5u l=0.13u
X207 vss in_h_sw[3] buf_8_3.z vss sg13_lv_nmos ad=95f pd=0.88u as=0.17p ps=1.68u w=0.5u l=0.13u
X208 buf_16_1.z in_l_sw[2] vdd vdd sg13_lv_pmos ad=0.19p pd=1.38u as=0.19p ps=1.38u w=1u l=0.13u
X209 buf_16_2.z in_l_sw[1] vdd vdd sg13_lv_pmos ad=0.19p pd=1.38u as=0.19p ps=1.38u w=1u l=0.13u
X210 vss in_l_sw[5] buf_8_4.z vss sg13_lv_nmos ad=95f pd=0.88u as=95f ps=0.88u w=0.5u l=0.13u
X211 buf_8_0.z in_l_sw[4] vss vss sg13_lv_nmos ad=0.17p pd=1.68u as=95f ps=0.88u w=0.5u l=0.13u
X212 buf_8_1.z in_l_sw[3] vss vss sg13_lv_nmos ad=95f pd=0.88u as=95f ps=0.88u w=0.5u l=0.13u
X213 buf_32_0.z in_l_sw[0] vdd vdd sg13_lv_pmos ad=0.19p pd=1.38u as=0.19p ps=1.38u w=1u l=0.13u
X214 buf_8_2.z in_h_sw[4] vdd vdd sg13_lv_pmos ad=0.19p pd=1.38u as=0.19p ps=1.38u w=1u l=0.13u
X215 vdd in_h_sw[0] buf_32_1.z vdd sg13_lv_pmos ad=0.19p pd=1.38u as=0.19p ps=1.38u w=1u l=0.13u
X216 buf_8_4.z in_l_sw[5] vdd vdd sg13_lv_pmos ad=0.19p pd=1.38u as=0.19p ps=1.38u w=1u l=0.13u
X217 vdd in_h_sw[10] buf_1_1.z vdd sg13_lv_pmos ad=0.34p pd=2.68u as=0.34p ps=2.68u w=1u l=0.13u
X218 buf_16_0.z in_h_sw[2] vdd vdd sg13_lv_pmos ad=0.19p pd=1.38u as=0.19p ps=1.38u w=1u l=0.13u
X219 vss in_h_sw[5] buf_8_5.z vss sg13_lv_nmos ad=95f pd=0.88u as=95f ps=0.88u w=0.5u l=0.13u
X220 vdd in_l_sw[0] buf_32_0.z vdd sg13_lv_pmos ad=0.19p pd=1.38u as=0.19p ps=1.38u w=1u l=0.13u
X221 vss in_h_sw[1] buf_16_3.z vss sg13_lv_nmos ad=95f pd=0.88u as=95f ps=0.88u w=0.5u l=0.13u
X222 vss in_h_sw[2] buf_16_0.z vss sg13_lv_nmos ad=95f pd=0.88u as=95f ps=0.88u w=0.5u l=0.13u
X223 buf_32_1.z in_h_sw[0] vss vss sg13_lv_nmos ad=95f pd=0.88u as=95f ps=0.88u w=0.5u l=0.13u
X224 vss in_l_sw[8] buf_2_1.z vss sg13_lv_nmos ad=95f pd=0.88u as=0.17p ps=1.68u w=0.5u l=0.13u
X225 buf_32_0.z in_l_sw[0] vdd vdd sg13_lv_pmos ad=0.19p pd=1.38u as=0.19p ps=1.38u w=1u l=0.13u
X226 vss in_l_sw[6] buf_4_3.z vss sg13_lv_nmos ad=95f pd=0.88u as=0.17p ps=1.68u w=0.5u l=0.13u
X227 vdd in_l_sw[3] buf_8_1.z vdd sg13_lv_pmos ad=0.19p pd=1.38u as=0.19p ps=1.38u w=1u l=0.13u
X228 vdd in_h_sw[0] buf_32_1.z vdd sg13_lv_pmos ad=0.19p pd=1.38u as=0.34p ps=2.68u w=1u l=0.13u
X229 vdd in_h_sw[7] buf_4_2.z vdd sg13_lv_pmos ad=0.19p pd=1.38u as=0.34p ps=2.68u w=1u l=0.13u
X230 vss in_l_sw[0] buf_32_0.z vss sg13_lv_nmos ad=95f pd=0.88u as=95f ps=0.88u w=0.5u l=0.13u
X231 vss in_h_sw[0] buf_32_1.z vss sg13_lv_nmos ad=95f pd=0.88u as=95f ps=0.88u w=0.5u l=0.13u
X232 buf_8_2.z in_h_sw[4] vss vss sg13_lv_nmos ad=95f pd=0.88u as=95f ps=0.88u w=0.5u l=0.13u
X233 buf_32_1.z in_h_sw[0] vss vss sg13_lv_nmos ad=95f pd=0.88u as=95f ps=0.88u w=0.5u l=0.13u
X234 buf_4_3.z in_l_sw[6] vdd vdd sg13_lv_pmos ad=0.34p pd=2.68u as=0.19p ps=1.38u w=1u l=0.13u
X235 vss in_l_sw[1] buf_16_2.z vss sg13_lv_nmos ad=95f pd=0.88u as=95f ps=0.88u w=0.5u l=0.13u
X236 buf_32_1.z in_h_sw[0] vdd vdd sg13_lv_pmos ad=0.19p pd=1.38u as=0.19p ps=1.38u w=1u l=0.13u
X237 buf_16_2.z in_l_sw[1] vdd vdd sg13_lv_pmos ad=0.19p pd=1.38u as=0.19p ps=1.38u w=1u l=0.13u
X238 buf_32_0.z in_l_sw[0] vss vss sg13_lv_nmos ad=95f pd=0.88u as=95f ps=0.88u w=0.5u l=0.13u
X239 vss in_l_sw[7] buf_4_0.z vss sg13_lv_nmos ad=95f pd=0.88u as=95f ps=0.88u w=0.5u l=0.13u
X240 buf_8_4.z in_l_sw[5] vdd vdd sg13_lv_pmos ad=0.19p pd=1.38u as=0.19p ps=1.38u w=1u l=0.13u
X241 buf_16_3.z in_h_sw[1] vdd vdd sg13_lv_pmos ad=0.19p pd=1.38u as=0.19p ps=1.38u w=1u l=0.13u
X242 vdd in_h_sw[0] buf_32_1.z vdd sg13_lv_pmos ad=0.19p pd=1.38u as=0.19p ps=1.38u w=1u l=0.13u
X243 buf_16_3.z in_h_sw[1] vss vss sg13_lv_nmos ad=95f pd=0.88u as=95f ps=0.88u w=0.5u l=0.13u
X244 vdd in_l_sw[4] buf_8_0.z vdd sg13_lv_pmos ad=0.19p pd=1.38u as=0.34p ps=2.68u w=1u l=0.13u
X245 buf_16_0.z in_h_sw[2] vdd vdd sg13_lv_pmos ad=0.19p pd=1.38u as=0.19p ps=1.38u w=1u l=0.13u
X246 vss in_l_sw[2] buf_16_1.z vss sg13_lv_nmos ad=95f pd=0.88u as=95f ps=0.88u w=0.5u l=0.13u
X247 buf_8_5.z in_h_sw[5] vdd vdd sg13_lv_pmos ad=0.19p pd=1.38u as=0.19p ps=1.38u w=1u l=0.13u
X248 buf_8_4.z in_l_sw[5] vss vss sg13_lv_nmos ad=0.17p pd=1.68u as=95f ps=0.88u w=0.5u l=0.13u
X249 vdd in_l_sw[2] buf_16_1.z vdd sg13_lv_pmos ad=0.19p pd=1.38u as=0.19p ps=1.38u w=1u l=0.13u
X250 vss in_l_sw[1] buf_16_2.z vss sg13_lv_nmos ad=95f pd=0.88u as=95f ps=0.88u w=0.5u l=0.13u
X251 vss in_l_sw[4] buf_8_0.z vss sg13_lv_nmos ad=95f pd=0.88u as=95f ps=0.88u w=0.5u l=0.13u
X252 buf_16_2.z in_l_sw[1] vdd vdd sg13_lv_pmos ad=0.19p pd=1.38u as=0.19p ps=1.38u w=1u l=0.13u
X253 vdd in_h_sw[4] buf_8_2.z vdd sg13_lv_pmos ad=0.19p pd=1.38u as=0.19p ps=1.38u w=1u l=0.13u
X254 buf_16_3.z in_h_sw[1] vdd vdd sg13_lv_pmos ad=0.19p pd=1.38u as=0.19p ps=1.38u w=1u l=0.13u
X255 vss in_h_sw[2] buf_16_0.z vss sg13_lv_nmos ad=95f pd=0.88u as=0.17p ps=1.68u w=0.5u l=0.13u
X256 buf_32_1.z in_h_sw[0] vss vss sg13_lv_nmos ad=95f pd=0.88u as=95f ps=0.88u w=0.5u l=0.13u
X257 buf_8_0.z in_l_sw[4] vdd vdd sg13_lv_pmos ad=0.34p pd=2.68u as=0.19p ps=1.38u w=1u l=0.13u
X258 buf_8_5.z in_h_sw[5] vss vss sg13_lv_nmos ad=95f pd=0.88u as=95f ps=0.88u w=0.5u l=0.13u
X259 buf_32_0.z in_l_sw[0] vdd vdd sg13_lv_pmos ad=0.19p pd=1.38u as=0.19p ps=1.38u w=1u l=0.13u
X260 vss in_l_sw[2] buf_16_1.z vss sg13_lv_nmos ad=95f pd=0.88u as=95f ps=0.88u w=0.5u l=0.13u
X261 vss in_l_sw[0] buf_32_0.z vss sg13_lv_nmos ad=95f pd=0.88u as=95f ps=0.88u w=0.5u l=0.13u
X262 buf_16_0.z in_h_sw[2] vss vss sg13_lv_nmos ad=95f pd=0.88u as=95f ps=0.88u w=0.5u l=0.13u
X263 buf_16_0.z in_h_sw[2] vss vss sg13_lv_nmos ad=95f pd=0.88u as=95f ps=0.88u w=0.5u l=0.13u
X264 vss in_h_sw[0] buf_32_1.z vss sg13_lv_nmos ad=95f pd=0.88u as=95f ps=0.88u w=0.5u l=0.13u
X265 vdd in_l_sw[10] buf_1_0.z vdd sg13_lv_pmos ad=0.34p pd=2.68u as=0.34p ps=2.68u w=1u l=0.13u
X266 vss in_h_sw[6] buf_4_1.z vss sg13_lv_nmos ad=95f pd=0.88u as=0.17p ps=1.68u w=0.5u l=0.13u
X267 vss in_l_sw[2] buf_16_1.z vss sg13_lv_nmos ad=95f pd=0.88u as=95f ps=0.88u w=0.5u l=0.13u
X268 buf_32_0.z in_l_sw[0] vdd vdd sg13_lv_pmos ad=0.19p pd=1.38u as=0.19p ps=1.38u w=1u l=0.13u
X269 vdd in_l_sw[0] buf_32_0.z vdd sg13_lv_pmos ad=0.19p pd=1.38u as=0.19p ps=1.38u w=1u l=0.13u
X270 vdd in_h_sw[4] buf_8_2.z vdd sg13_lv_pmos ad=0.19p pd=1.38u as=0.34p ps=2.68u w=1u l=0.13u
X271 buf_8_1.z in_l_sw[3] vdd vdd sg13_lv_pmos ad=0.19p pd=1.38u as=0.19p ps=1.38u w=1u l=0.13u
X272 buf_32_0.z in_l_sw[0] vss vss sg13_lv_nmos ad=95f pd=0.88u as=95f ps=0.88u w=0.5u l=0.13u
X273 buf_32_1.z in_h_sw[0] vss vss sg13_lv_nmos ad=95f pd=0.88u as=95f ps=0.88u w=0.5u l=0.13u
X274 buf_4_2.z in_h_sw[7] vss vss sg13_lv_nmos ad=0.17p pd=1.68u as=95f ps=0.88u w=0.5u l=0.13u
X275 vdd in_h_sw[1] buf_16_3.z vdd sg13_lv_pmos ad=0.19p pd=1.38u as=0.19p ps=1.38u w=1u l=0.13u
X276 vdd in_h_sw[0] buf_32_1.z vdd sg13_lv_pmos ad=0.19p pd=1.38u as=0.19p ps=1.38u w=1u l=0.13u
X277 vss in_h_sw[3] buf_8_3.z vss sg13_lv_nmos ad=95f pd=0.88u as=95f ps=0.88u w=0.5u l=0.13u
X278 vdd in_l_sw[6] buf_4_3.z vdd sg13_lv_pmos ad=0.19p pd=1.38u as=0.34p ps=2.68u w=1u l=0.13u
X279 vss in_l_sw[0] buf_32_0.z vss sg13_lv_nmos ad=95f pd=0.88u as=95f ps=0.88u w=0.5u l=0.13u
X280 buf_8_3.z in_h_sw[3] vdd vdd sg13_lv_pmos ad=0.34p pd=2.68u as=0.19p ps=1.38u w=1u l=0.13u
X281 vss in_l_sw[3] buf_8_1.z vss sg13_lv_nmos ad=95f pd=0.88u as=95f ps=0.88u w=0.5u l=0.13u
X282 buf_32_1.z in_h_sw[0] vdd vdd sg13_lv_pmos ad=0.19p pd=1.38u as=0.19p ps=1.38u w=1u l=0.13u
X283 vss in_h_sw[1] buf_16_3.z vss sg13_lv_nmos ad=95f pd=0.88u as=95f ps=0.88u w=0.5u l=0.13u
X284 buf_32_1.z in_h_sw[0] vss vss sg13_lv_nmos ad=95f pd=0.88u as=95f ps=0.88u w=0.5u l=0.13u
X285 buf_32_1.z in_h_sw[0] vdd vdd sg13_lv_pmos ad=0.34p pd=2.68u as=0.19p ps=1.38u w=1u l=0.13u
X286 vdd in_h_sw[2] buf_16_0.z vdd sg13_lv_pmos ad=0.19p pd=1.38u as=0.19p ps=1.38u w=1u l=0.13u
X287 buf_4_1.z in_h_sw[6] vdd vdd sg13_lv_pmos ad=0.19p pd=1.38u as=0.19p ps=1.38u w=1u l=0.13u
X288 vss in_l_sw[1] buf_16_2.z vss sg13_lv_nmos ad=95f pd=0.88u as=95f ps=0.88u w=0.5u l=0.13u
X289 vss in_h_sw[3] buf_8_3.z vss sg13_lv_nmos ad=95f pd=0.88u as=95f ps=0.88u w=0.5u l=0.13u
X290 buf_16_1.z in_l_sw[2] vdd vdd sg13_lv_pmos ad=0.19p pd=1.38u as=0.19p ps=1.38u w=1u l=0.13u
X291 buf_16_2.z in_l_sw[1] vss vss sg13_lv_nmos ad=95f pd=0.88u as=95f ps=0.88u w=0.5u l=0.13u
X292 buf_8_3.z in_h_sw[3] vdd vdd sg13_lv_pmos ad=0.19p pd=1.38u as=0.19p ps=1.38u w=1u l=0.13u
X293 vss in_l_sw[5] buf_8_4.z vss sg13_lv_nmos ad=95f pd=0.88u as=95f ps=0.88u w=0.5u l=0.13u
X294 vdd in_l_sw[1] buf_16_2.z vdd sg13_lv_pmos ad=0.19p pd=1.38u as=0.19p ps=1.38u w=1u l=0.13u
X295 vdd in_l_sw[2] buf_16_1.z vdd sg13_lv_pmos ad=0.19p pd=1.38u as=0.19p ps=1.38u w=1u l=0.13u
X296 buf_32_0.z in_l_sw[0] vdd vdd sg13_lv_pmos ad=0.19p pd=1.38u as=0.19p ps=1.38u w=1u l=0.13u
X297 vdd in_h_sw[1] buf_16_3.z vdd sg13_lv_pmos ad=0.19p pd=1.38u as=0.19p ps=1.38u w=1u l=0.13u
X298 vss in_h_sw[0] buf_32_1.z vss sg13_lv_nmos ad=95f pd=0.88u as=95f ps=0.88u w=0.5u l=0.13u
X299 vdd in_l_sw[7] buf_4_0.z vdd sg13_lv_pmos ad=0.19p pd=1.38u as=0.19p ps=1.38u w=1u l=0.13u
X300 buf_32_0.z in_l_sw[0] vss vss sg13_lv_nmos ad=0.17p pd=1.68u as=95f ps=0.88u w=0.5u l=0.13u
X301 buf_2_0.z in_h_sw[8] vdd vdd sg13_lv_pmos ad=0.34p pd=2.68u as=0.19p ps=1.38u w=1u l=0.13u
X302 vdd in_l_sw[4] buf_8_0.z vdd sg13_lv_pmos ad=0.19p pd=1.38u as=0.19p ps=1.38u w=1u l=0.13u
X303 vdd in_l_sw[0] buf_32_0.z vdd sg13_lv_pmos ad=0.19p pd=1.38u as=0.19p ps=1.38u w=1u l=0.13u
X304 vss in_h_sw[10] buf_1_1.z vss sg13_lv_nmos ad=0.17p pd=1.68u as=0.17p ps=1.68u w=0.5u l=0.13u
X305 buf_16_1.z in_l_sw[2] vss vss sg13_lv_nmos ad=95f pd=0.88u as=95f ps=0.88u w=0.5u l=0.13u
X306 buf_32_0.z in_l_sw[0] vss vss sg13_lv_nmos ad=95f pd=0.88u as=95f ps=0.88u w=0.5u l=0.13u
X307 vss in_h_sw[2] buf_16_0.z vss sg13_lv_nmos ad=95f pd=0.88u as=95f ps=0.88u w=0.5u l=0.13u
X308 buf_16_1.z in_l_sw[2] vdd vdd sg13_lv_pmos ad=0.19p pd=1.38u as=0.19p ps=1.38u w=1u l=0.13u
X309 buf_16_2.z in_l_sw[1] vdd vdd sg13_lv_pmos ad=0.34p pd=2.68u as=0.19p ps=1.38u w=1u l=0.13u